* XSpice netlist created from SPICE and liberty sources by spi2xspice.py
*SPICE netlist created from verilog structural netlist module riscv_top by vlog2Spice (qflow)
.subckt riscv_top a_VPWR a_VGND a_I_ae a_Q_ae a_clk a_ds_I_n_i a_ds_I_n_o
+ a_ds_I_oe a_ds_I_p_i a_ds_I_p_o a_ds_Q_n_i a_ds_Q_n_o a_ds_Q_oe a_ds_Q_p_i
+ a_ds_Q_p_o a_lo_I_i a_lo_I_o a_lo_I_oe a_lo_Ix_i a_lo_Ix_o a_lo_Q_i a_lo_Q_o
+ a_lo_Q_oe a_lo_Qx_i a_lo_Qx_o a_reset a_rx a_scl a_sclk a_sda_i a_sda_o
+ a_sda_oe a_si a_so a_sram_ce a_tx a_gpio_in_0_ a_gpio_in_1_ a_gpio_in_2_
+ a_gpio_in_3_ a_gpio_out_0_ a_gpio_out_1_ a_gpio_out_2_ a_gpio_out_3_
+ a_analog_en
A_19574_ [\memory_i.freq_inst.dsmod_cos.i_ena_mod\ \memory_i.freq_inst.lo_gen.lo_i_r\] _12937_ d_lut_sg13g2_nand2_1
A_19575_ [\memory_i.freq_inst.dsmod_cos.i_ena_mod\] _12938_ d_lut_sg13g2_inv_1
A_19576_ [_12938_] _12939_ d_lut_sg13g2_buf_1
A_19577_ [_12939_] _12940_ d_lut_sg13g2_buf_1
A_19578_ [_12940_] _12941_ d_lut_sg13g2_buf_1
A_19579_ [_12941_ \memory_i.freq_inst.lo_gen.lo_q_r\] _12942_ d_lut_sg13g2_nand2_1
A_19580_ [\memory_i.freq_inst.cordic.rstn_i\] _12943_ d_lut_sg13g2_inv_1
A_19581_ [_12943_] _12944_ d_lut_sg13g2_buf_1
A_19582_ [_12944_] _12945_ d_lut_sg13g2_buf_1
A_19583_ [_12945_] _12946_ d_lut_sg13g2_buf_1
A_19584_ [_12937_ _12942_ _12946_] _01973_ d_lut_sg13g2_a21oi_1
A_19585_ [\memory_i.sram_master.clk_counter_0_\] _00045_ d_lut_sg13g2_inv_1
A_19586_ [reset] _12947_ d_lut_sg13g2_inv_1
A_19587_ [_12947_] _12948_ d_lut_sg13g2_buf_1
A_19588_ [_12948_] _12949_ d_lut_sg13g2_buf_1
A_19589_ [_12949_] _12950_ d_lut_sg13g2_buf_1
A_19590_ [_12950_] _00002_ d_lut_sg13g2_buf_1
A_19591_ [\memory_i.state_2_\ \memory_i.state_4_\] _12951_ d_lut_sg13g2_or2_1
A_19592_ [_12951_] _12952_ d_lut_sg13g2_buf_1
A_19593_ [\memory_i.state_1_\ \memory_i.state_6_\ _12952_] _12953_ d_lut_sg13g2_nor3_1
A_19594_ [reset \control_i.state_q_3_\ _12953_] _00001_ d_lut_sg13g2_and3_1
A_19595_ [reset \control_i.state_q_7_\] _00000_ d_lut_sg13g2_and2_1
A_19596_ [\control_i.state_q_6_\ \control_i.state_q_4_\] _12954_ d_lut_sg13g2_or2_1
A_19597_ [_12954_] _12955_ d_lut_sg13g2_buf_1
A_19598_ [_12955_] _12956_ d_lut_sg13g2_buf_1
A_19599_ [\control_i.state_q_3_\ \control_i.state_q_5_\ _12956_] _12957_ d_lut_sg13g2_nor3_1
A_19600_ [_12957_] _12958_ d_lut_sg13g2_buf_1
A_19601_ [_12947_ _12958_] _12959_ d_lut_sg13g2_nor2_1
A_19602_ [_12959_] _00031_ d_lut_sg13g2_inv_1
A_19603_ [\memory_i.sclk_flag\] _12960_ d_lut_sg13g2_inv_1
A_19604_ [\memory_i.uart_transmitter.fsm_state_1_\ \memory_i.uart_transmitter.fsm_state_0_\] _12961_ d_lut_sg13g2_nor2_1
A_19605_ [\memory_i.sram_master.state_3_\] _12962_ d_lut_sg13g2_inv_1
A_19606_ [\memory_i.sram_master.state_0_\] _12963_ d_lut_sg13g2_inv_1
A_19607_ [_12962_ _12963_ \memory_i.target_2_\] _12964_ d_lut_sg13g2_a21oi_1
A_19608_ [\memory_i.target_2_\ _12961_ _12964_] _12965_ d_lut_sg13g2_a21oi_1
A_19609_ [\memory_i.i2c_master.state_4_\ \memory_i.i2c_master.state_0_\ \memory_i.target_3_\] _12966_ d_lut_sg13g2_o21ai_1
A_19610_ [\memory_i.target_3_\ _12965_ _12966_] _12967_ d_lut_sg13g2_o21ai_1
A_19611_ [_12967_] _12968_ d_lut_sg13g2_inv_1
A_19612_ [_12960_ _12968_] _12969_ d_lut_sg13g2_nor2_1
A_19613_ [_00031_ _12969_] _12970_ d_lut_sg13g2_nor2_1
A_19614_ [\rd_alu_25_\ \rd_alu_26_\ \rd_alu_24_\] _12971_ d_lut_sg13g2_nor3_1
A_19615_ [\rd_alu_29_\ \rd_alu_30_\] _12972_ d_lut_sg13g2_or2_1
A_19616_ [\rd_alu_28_\ \rd_alu_31_\ \rd_alu_27_\ _12972_] _12973_ d_lut_sg13g2_nor4_1
A_19617_ [\control_i.state_q_6_\ \control_i.state_q_4_\] _12974_ d_lut_sg13g2_nor2_1
A_19618_ [_12974_] _12975_ d_lut_sg13g2_buf_1
A_19619_ [_12971_ _12973_ _12975_] _12976_ d_lut_sg13g2_a21oi_1
A_19620_ [\rd_alu_23_\ _12955_] _12977_ d_lut_sg13g2_nand2_1
A_19621_ [_12977_] _12978_ d_lut_sg13g2_buf_1
A_19622_ [_12976_ _12978_] _12979_ d_lut_sg13g2_nor2b_1
A_19623_ [_12979_] _12980_ d_lut_sg13g2_buf_1
A_19624_ [\rd_alu_2_\] _12981_ d_lut_sg13g2_inv_1
A_19625_ [\csr_i.pc_13_\ \csr_i.pc_12_\ \csr_i.pc_11_\ \csr_i.pc_6_\] _12982_ d_lut_sg13g2_nor4_1
A_19626_ [\csr_i.pc_10_\ \csr_i.pc_9_\] _12983_ d_lut_sg13g2_or2_1
A_19627_ [\csr_i.pc_8_\ \csr_i.pc_7_\ _12983_] _12984_ d_lut_sg13g2_nor3_1
A_19628_ [\csr_i.pc_21_\ \csr_i.pc_20_\ \csr_i.pc_19_\ \csr_i.pc_14_\] _12985_ d_lut_sg13g2_nor4_1
A_19629_ [\csr_i.pc_18_\ \csr_i.pc_17_\ \csr_i.pc_16_\ \csr_i.pc_15_\] _12986_ d_lut_sg13g2_nor4_1
A_19630_ [_12982_ _12984_ _12985_ _12986_] _12987_ d_lut_sg13g2_nand4_1
A_19631_ [\rd_alu_10_\ \rd_alu_7_\ \rd_alu_6_\ \rd_alu_8_\] _12988_ d_lut_sg13g2_nor4_1
A_19632_ [\rd_alu_21_\ \rd_alu_19_\ \rd_alu_13_\ \rd_alu_9_\] _12989_ d_lut_sg13g2_nor4_1
A_19633_ [\rd_alu_20_\ \rd_alu_18_\ \rd_alu_17_\ \rd_alu_11_\] _12990_ d_lut_sg13g2_nor4_1
A_19634_ [\rd_alu_16_\ \rd_alu_15_\ \rd_alu_14_\ \rd_alu_12_\] _12991_ d_lut_sg13g2_nor4_1
A_19635_ [_12988_ _12989_ _12990_ _12991_] _12992_ d_lut_sg13g2_nand4_1
A_19636_ [_12987_ _12992_ _12955_] _12993_ d_lut_sg13g2_mux2_1
A_19637_ [\csr_i.pc_5_\ \csr_i.pc_4_\ _12955_] _12994_ d_lut_sg13g2_nor3_1
A_19638_ [\rd_alu_5_\ \rd_alu_4_\ _12975_] _12995_ d_lut_sg13g2_nor3_1
A_19639_ [\csr_i.pc_3_\ _12975_] _12996_ d_lut_sg13g2_and2_1
A_19640_ [\rd_alu_3_\ _12955_ _12996_] _12997_ d_lut_sg13g2_a21oi_1
A_19641_ [_12994_ _12995_ _12997_] _12998_ d_lut_sg13g2_o21ai_1
A_19642_ [\rd_alu_22_\ _12976_ _12993_ _12998_] _12999_ d_lut_sg13g2_nor4_1
A_19643_ [_12978_ _12999_] _13000_ d_lut_sg13g2_nand2b_1
A_19644_ [\rd_alu_0_\ _12955_] _13001_ d_lut_sg13g2_and2_1
A_19645_ [\csr_i.pc_0_\ _12975_ _13001_] _13002_ d_lut_sg13g2_a21oi_1
A_19646_ [_13002_] _13003_ d_lut_sg13g2_buf_1
A_19647_ [\csr_i.pc_1_\] _13004_ d_lut_sg13g2_inv_1
A_19648_ [_13004_ _12955_] _13005_ d_lut_sg13g2_nor2_1
A_19649_ [\rd_alu_1_\ _12955_ _13005_] _13006_ d_lut_sg13g2_a21oi_1
A_19650_ [_13003_ _13006_] _13007_ d_lut_sg13g2_nand2_1
A_19651_ [_12981_ _13000_ _13007_] _13008_ d_lut_sg13g2_or3_1
A_19652_ [_12980_ _13008_] _13009_ d_lut_sg13g2_nor2b_1
A_19653_ [\alu_i.instruction_3_\ \alu_i.instruction_1_\ \alu_i.instruction_0_\] _13010_ d_lut_sg13g2_nand3b_1
A_19654_ [_13010_] _13011_ d_lut_sg13g2_buf_2
A_19655_ [\alu_i.instruction_4_\ \alu_i.instruction_2_\ _13011_] _13012_ d_lut_sg13g2_nor3_1
A_19656_ [\alu_i.instruction_5_\ _13012_] _13013_ d_lut_sg13g2_and2_1
A_19657_ [_13013_] _13014_ d_lut_sg13g2_buf_1
A_19658_ [\alu_i.instruction_6_\ _13014_] _13015_ d_lut_sg13g2_nor2b_1
A_19659_ [_12956_ _13015_] _13016_ d_lut_sg13g2_and2_1
A_19660_ [_13016_] _13017_ d_lut_sg13g2_buf_1
A_19661_ [\memory_i.state_0_\ _12959_] _13018_ d_lut_sg13g2_nand2_1
A_19662_ [_13018_] _13019_ d_lut_sg13g2_buf_1
A_19663_ [_13019_] _13020_ d_lut_sg13g2_buf_1
A_19664_ [_13009_ _13017_ _13020_] _13021_ d_lut_sg13g2_nor3_1
A_19665_ [\memory_i.state_2_\ _12970_ _13021_] _00033_ d_lut_sg13g2_a21o_1
A_19666_ [_12980_] _13022_ d_lut_sg13g2_buf_1
A_19667_ [_13022_] _13023_ d_lut_sg13g2_buf_1
A_19668_ [_13020_] _13024_ d_lut_sg13g2_buf_1
A_19669_ [_12975_] _13025_ d_lut_sg13g2_buf_1
A_19670_ [\csr_i.pc_2_\ _13025_] _13026_ d_lut_sg13g2_nand2_1
A_19671_ [_12981_ _13025_ _13026_] _13027_ d_lut_sg13g2_o21ai_1
A_19672_ [_13007_ _13027_] _13028_ d_lut_sg13g2_nand2_1
A_19673_ [_12999_ _13028_] _13029_ d_lut_sg13g2_and2_1
A_19674_ [\csr_i.pc_5_\ \csr_i.pc_4_\ \csr_i.pc_3_\] _13030_ d_lut_sg13g2_nand3_1
A_19675_ [_13030_] _13031_ d_lut_sg13g2_buf_1
A_19676_ [\rd_alu_22_\ \rd_alu_2_\ _12978_ _13007_] _13032_ d_lut_sg13g2_nor4_1
A_19677_ [_13031_ _13032_] _13033_ d_lut_sg13g2_nor2_1
A_19678_ [\csr_i.pc_22_\ _13031_ _13033_] _13034_ d_lut_sg13g2_a21oi_1
A_19679_ [\rd_alu_22_\] _13035_ d_lut_sg13g2_inv_1
A_19680_ [\rd_alu_5_\ \rd_alu_4_\ \rd_alu_3_\] _13036_ d_lut_sg13g2_nand3_1
A_19681_ [_13035_ _13036_ _13032_] _13037_ d_lut_sg13g2_a21oi_1
A_19682_ [_12956_ _13037_ _12993_] _13038_ d_lut_sg13g2_a21oi_1
A_19683_ [_12956_ _13034_ _13038_] _13039_ d_lut_sg13g2_o21ai_1
A_19684_ [_12971_ _13039_] _13040_ d_lut_sg13g2_and2_1
A_19685_ [_12976_ _12978_ _13029_ _13040_] _13041_ d_lut_sg13g2_nor4_1
A_19686_ [_13000_ _12981_] _13042_ d_lut_sg13g2_nand2b_1
A_19687_ [_13042_] _13043_ d_lut_sg13g2_buf_1
A_19688_ [_13003_ _13006_ _13043_] _13044_ d_lut_sg13g2_nor3_1
A_19689_ [_13041_ _13044_] _13045_ d_lut_sg13g2_nor2_1
A_19690_ [_13023_ _13024_ _13045_] _00032_ d_lut_sg13g2_nor3_1
A_19691_ [\memory_i.sram_master.write_reg\] _13046_ d_lut_sg13g2_inv_1
A_19692_ [\memory_i.sram_master.index_2_\ \memory_i.sram_master.index_1_\ \memory_i.sram_master.index_0_\] _13047_ d_lut_sg13g2_nor3_1
A_19693_ [_13047_] _13048_ d_lut_sg13g2_buf_1
A_19694_ [\memory_i.sram_master.index_3_\ _13048_] _13049_ d_lut_sg13g2_nor2b_1
A_19695_ [_13049_] _13050_ d_lut_sg13g2_buf_1
A_19696_ [\memory_i.sram_master.index_4_\ _13050_] _13051_ d_lut_sg13g2_nand2b_1
A_19697_ [_13051_] _13052_ d_lut_sg13g2_buf_1
A_19698_ [\memory_i.sram_master.index_6_\ \memory_i.sram_master.index_5_\ _13052_] _13053_ d_lut_sg13g2_nor3_1
A_19699_ [\memory_i.sram_master.index_7_\ _13053_] _13054_ d_lut_sg13g2_nor2b_1
A_19700_ [_13054_] _13055_ d_lut_sg13g2_buf_1
A_19701_ [_13046_ \memory_i.sram_master.posedge_trigger\ \memory_i.sram_master.state_2_\ _13055_] _13056_ d_lut_sg13g2_nand4_1
A_19702_ [\memory_i.sram_master.posedge_trigger\] _13057_ d_lut_sg13g2_inv_1
A_19703_ [_13057_ \memory_i.sram_master.state_6_\] _13058_ d_lut_sg13g2_nand2_1
A_19704_ [reset \memory_i.target_0_\ _12952_] _13059_ d_lut_sg13g2_nand3_1
A_19705_ [_13059_] _13060_ d_lut_sg13g2_buf_1
A_19706_ [_13056_ _13058_ _13060_] _00030_ d_lut_sg13g2_a21oi_1
A_19707_ [\memory_i.sram_master.write_reg\ \memory_i.sram_master.posedge_trigger\ \memory_i.sram_master.state_2_\ _13055_] _13061_ d_lut_sg13g2_nand4_1
A_19708_ [\alu_i.funct3_1_\ _13025_] _13062_ d_lut_sg13g2_nor2_1
A_19709_ [\alu_i.funct3_0_\ \memory_i.sram_master.index_3_\] _13063_ d_lut_sg13g2_xor2_1
A_19710_ [\memory_i.sram_master.index_4_\ _13062_ _13063_] _13064_ d_lut_sg13g2_nand3_1
A_19711_ [\memory_i.sram_master.index_4_\ \memory_i.sram_master.index_3_\ _13062_] _13065_ d_lut_sg13g2_or3_1
A_19712_ [\memory_i.sram_master.index_5_\] _13066_ d_lut_sg13g2_inv_1
A_19713_ [\memory_i.sram_master.index_7_\ \memory_i.sram_master.index_6_\] _13067_ d_lut_sg13g2_nor2_1
A_19714_ [_13066_ \memory_i.sram_master.posedge_trigger\ _13048_ _13067_] _13068_ d_lut_sg13g2_nand4_1
A_19715_ [_13064_ _13065_ _13068_] _13069_ d_lut_sg13g2_a21oi_1
A_19716_ [_13069_] _13070_ d_lut_sg13g2_inv_1
A_19717_ [\memory_i.sram_master.state_5_\ _13070_] _13071_ d_lut_sg13g2_nand2_1
A_19718_ [_13061_ _13071_ _13060_] _00029_ d_lut_sg13g2_a21oi_1
A_19719_ [\memory_i.sram_master.index_5_\ _13052_] _13072_ d_lut_sg13g2_nor2_1
A_19720_ [_13072_ _13067_] _13073_ d_lut_sg13g2_nand2_1
A_19721_ [\memory_i.sram_master.negedge_trigger\ \memory_i.sram_master.state_0_\ \memory_i.sram_master.state_4_\] _13074_ d_lut_sg13g2_a21o_1
A_19722_ [\memory_i.sram_master.state_4_\ _13073_ _13074_ _13057_] _13075_ d_lut_sg13g2_a22oi_1
A_19723_ [_13060_ _13075_] _00028_ d_lut_sg13g2_nor2_1
A_19724_ [\memory_i.sram_master.state_5_\ \memory_i.sram_master.state_1_\] _13076_ d_lut_sg13g2_nor2_1
A_19725_ [_13076_ _13069_] _13077_ d_lut_sg13g2_nand2b_1
A_19726_ [_12962_ _13077_ _13060_] _00027_ d_lut_sg13g2_a21oi_1
A_19727_ [\memory_i.sram_master.posedge_trigger\ \memory_i.sram_master.state_4_\ _13055_] _13078_ d_lut_sg13g2_nand3_1
A_19728_ [_13057_ _13073_ \memory_i.sram_master.state_2_\] _13079_ d_lut_sg13g2_o21ai_1
A_19729_ [_13078_ _13079_ _13060_] _00026_ d_lut_sg13g2_a21oi_1
A_19730_ [\memory_i.sram_master.posedge_trigger\ \memory_i.sram_master.state_6_\ \memory_i.sram_master.state_1_\ _13070_] _13080_ d_lut_sg13g2_a22oi_1
A_19731_ [_13060_ _13080_] _00025_ d_lut_sg13g2_nor2_1
A_19732_ [\memory_i.sram_master.posedge_trigger\ \memory_i.sram_master.negedge_trigger\] _13081_ d_lut_sg13g2_nor2b_1
A_19733_ [_13081_] _13082_ d_lut_sg13g2_buf_1
A_19734_ [_13082_ \memory_i.sram_master.state_0_\] _13083_ d_lut_sg13g2_nand2b_1
A_19735_ [_13060_ _13083_] _00024_ d_lut_sg13g2_nand2b_1
A_19736_ [reset \memory_i.target_3_\ _12952_] _13084_ d_lut_sg13g2_nand3_1
A_19737_ [_13084_] _13085_ d_lut_sg13g2_buf_1
A_19738_ [_13085_] _13086_ d_lut_sg13g2_buf_1
A_19739_ [\memory_i.i2c_master.scl_ratio_3_\ \memory_i.i2c_master.scl_counter_2_\] _13087_ d_lut_sg13g2_xor2_1
A_19740_ [\memory_i.i2c_master.scl_ratio_13_\ \memory_i.i2c_master.scl_counter_12_\] _13088_ d_lut_sg13g2_xor2_1
A_19741_ [\memory_i.i2c_master.scl_ratio_10_\ \memory_i.i2c_master.scl_counter_9_\] _13089_ d_lut_sg13g2_xor2_1
A_19742_ [\memory_i.i2c_master.scl_ratio_8_\ \memory_i.i2c_master.scl_counter_7_\] _13090_ d_lut_sg13g2_xor2_1
A_19743_ [_13087_ _13088_ _13089_ _13090_] _13091_ d_lut_sg13g2_nor4_1
A_19744_ [\memory_i.i2c_master.scl_ratio_5_\ \memory_i.i2c_master.scl_counter_4_\] _13092_ d_lut_sg13g2_xor2_1
A_19745_ [\memory_i.i2c_master.scl_ratio_2_\ \memory_i.i2c_master.scl_counter_1_\] _13093_ d_lut_sg13g2_xor2_1
A_19746_ [\memory_i.i2c_master.scl_ratio_6_\ \memory_i.i2c_master.scl_counter_5_\] _13094_ d_lut_sg13g2_xor2_1
A_19747_ [\memory_i.i2c_master.scl_ratio_15_\ \memory_i.i2c_master.scl_counter_14_\] _13095_ d_lut_sg13g2_xor2_1
A_19748_ [_13092_ _13093_ _13094_ _13095_] _13096_ d_lut_sg13g2_nor4_1
A_19749_ [\memory_i.i2c_master.scl_ratio_1_\ \memory_i.i2c_master.scl_counter_0_\] _13097_ d_lut_sg13g2_xor2_1
A_19750_ [\memory_i.i2c_master.scl_ratio_11_\ \memory_i.i2c_master.scl_counter_10_\] _13098_ d_lut_sg13g2_xor2_1
A_19751_ [\memory_i.i2c_master.scl_ratio_4_\ \memory_i.i2c_master.scl_counter_3_\] _13099_ d_lut_sg13g2_xor2_1
A_19752_ [\memory_i.i2c_master.scl_ratio_12_\ \memory_i.i2c_master.scl_counter_11_\] _13100_ d_lut_sg13g2_xor2_1
A_19753_ [_13097_ _13098_ _13099_ _13100_] _13101_ d_lut_sg13g2_nor4_1
A_19754_ [\memory_i.i2c_master.scl_ratio_14_\ \memory_i.i2c_master.scl_counter_13_\] _13102_ d_lut_sg13g2_xor2_1
A_19755_ [\memory_i.i2c_master.scl_ratio_7_\ \memory_i.i2c_master.scl_counter_6_\] _13103_ d_lut_sg13g2_xor2_1
A_19756_ [\memory_i.i2c_master.scl_ratio_9_\ \memory_i.i2c_master.scl_counter_8_\] _13104_ d_lut_sg13g2_xor2_1
A_19757_ [\memory_i.i2c_master.scl_counter_15_\ _13102_ _13103_ _13104_] _13105_ d_lut_sg13g2_nor4_1
A_19758_ [_13091_ _13096_ _13101_ _13105_] _13106_ d_lut_sg13g2_nand4_1
A_19759_ [_13106_] _13107_ d_lut_sg13g2_buf_1
A_19760_ [\memory_i.i2c_master.state_3_\ \memory_i.i2c_master.state_10_\] _13108_ d_lut_sg13g2_nor2_1
A_19761_ [\memory_i.i2c_master.state_8_\ _13108_] _13109_ d_lut_sg13g2_nand2b_1
A_19762_ [\memory_i.i2c_master.state_1_\ \memory_i.i2c_master.state_5_\] _13110_ d_lut_sg13g2_or2_1
A_19763_ [_13110_] _13111_ d_lut_sg13g2_buf_1
A_19764_ [\memory_i.i2c_master.state_6_\ \memory_i.i2c_master.state_9_\] _13112_ d_lut_sg13g2_or2_1
A_19765_ [\memory_i.i2c_master.state_2_\ _13109_ _13111_ _13112_] _13113_ d_lut_sg13g2_nor4_1
A_19766_ [scl _13107_ _13113_] _13114_ d_lut_sg13g2_nor3_1
A_19767_ [_13114_] _13115_ d_lut_sg13g2_buf_1
A_19768_ [_13115_] _13116_ d_lut_sg13g2_buf_1
A_19769_ [\memory_i.i2c_master.frame_index_0_\] _13117_ d_lut_sg13g2_inv_1
A_19770_ [\memory_i.i2c_master.frame_index_1_\ \memory_i.i2c_mask_2_\ \memory_i.i2c_mask_0_\] _13118_ d_lut_sg13g2_a21oi_1
A_19771_ [\memory_i.i2c_mask_1_\ \memory_i.i2c_mask_0_\ \memory_i.i2c_master.frame_index_1_\] _13119_ d_lut_sg13g2_o21ai_1
A_19772_ [_13117_ _13118_ _13119_] _13120_ d_lut_sg13g2_o21ai_1
A_19773_ [\memory_i.i2c_master.write\ \memory_i.i2c_master.state_2_\ _13120_ \memory_i.i2c_master.state_1_\] _13121_ d_lut_sg13g2_a22oi_1
A_19774_ [_13121_] _13122_ d_lut_sg13g2_inv_1
A_19775_ [\memory_i.i2c_master.index_1_\ \memory_i.i2c_master.index_0_\] _13123_ d_lut_sg13g2_or2_1
A_19776_ [_13123_] _13124_ d_lut_sg13g2_buf_1
A_19777_ [\memory_i.i2c_master.index_2_\ _13124_] _13125_ d_lut_sg13g2_nor2_1
A_19778_ [_13125_] _13126_ d_lut_sg13g2_buf_1
A_19779_ [_13116_ _13126_] _13127_ d_lut_sg13g2_nand2_1
A_19780_ [_13116_ _13122_ _13127_ \memory_i.i2c_master.state_10_\] _13128_ d_lut_sg13g2_a22oi_1
A_19781_ [_13086_ _13128_] _00014_ d_lut_sg13g2_nor2_1
A_19782_ [\memory_i.i2c_master.state_3_\ _13116_ _13126_] _13129_ d_lut_sg13g2_nand3_1
A_19783_ [_13115_] _13130_ d_lut_sg13g2_inv_1
A_19784_ [\memory_i.i2c_master.state_9_\ _13130_] _13131_ d_lut_sg13g2_nand2_1
A_19785_ [_13129_ _13131_ _13086_] _00023_ d_lut_sg13g2_a21oi_1
A_19786_ [\memory_i.i2c_master.write\] _13132_ d_lut_sg13g2_inv_1
A_19787_ [_13132_ \memory_i.i2c_master.state_2_\ \memory_i.i2c_master.state_5_\ _13120_] _13133_ d_lut_sg13g2_a22oi_1
A_19788_ [_13133_] _13134_ d_lut_sg13g2_inv_1
A_19789_ [\memory_i.i2c_master.state_8_\ _13127_ _13134_ _13116_] _13135_ d_lut_sg13g2_a22oi_1
A_19790_ [_13086_ _13135_] _00022_ d_lut_sg13g2_nor2_1
A_19791_ [_13120_ _13111_] _13136_ d_lut_sg13g2_nand2b_1
A_19792_ [_13107_ _13136_] _13137_ d_lut_sg13g2_nor2_1
A_19793_ [\memory_i.i2c_master.state_7_\ _13137_] _13138_ d_lut_sg13g2_nor2_1
A_19794_ [scl] _13139_ d_lut_sg13g2_inv_1
A_19795_ [_13139_ _13107_] _13140_ d_lut_sg13g2_nor2_1
A_19796_ [_13140_] _13141_ d_lut_sg13g2_buf_1
A_19797_ [_13085_ _13138_ _13141_] _00021_ d_lut_sg13g2_nor3_1
A_19798_ [\memory_i.i2c_master.state_6_\ _13130_ _13141_ \memory_i.i2c_master.state_0_\] _13142_ d_lut_sg13g2_a22oi_1
A_19799_ [_13086_ _13142_] _00020_ d_lut_sg13g2_nor2_1
A_19800_ [\memory_i.i2c_master.state_5_\ _13130_] _13143_ d_lut_sg13g2_nand2_1
A_19801_ [\memory_i.i2c_master.state_8_\ _13116_ _13126_] _13144_ d_lut_sg13g2_nand3_1
A_19802_ [_13143_ _13144_ _13086_] _00019_ d_lut_sg13g2_a21oi_1
A_19803_ [\memory_i.i2c_master.state_7_\ _13141_ \memory_i.i2c_master.state_4_\] _13145_ d_lut_sg13g2_a21oi_1
A_19804_ [_13086_ _13145_] _00018_ d_lut_sg13g2_nor2_1
A_19805_ [\memory_i.i2c_master.state_6_\ _13116_ _13127_ \memory_i.i2c_master.state_3_\] _13146_ d_lut_sg13g2_a22oi_1
A_19806_ [_13086_ _13146_] _00017_ d_lut_sg13g2_nor2_1
A_19807_ [\memory_i.i2c_master.state_9_\ _13116_] _13147_ d_lut_sg13g2_nand2_1
A_19808_ [\memory_i.i2c_master.state_2_\ _13130_] _13148_ d_lut_sg13g2_nand2_1
A_19809_ [_13147_ _13148_ _13086_] _00016_ d_lut_sg13g2_a21oi_1
A_19810_ [\memory_i.i2c_master.state_1_\ _13130_] _13149_ d_lut_sg13g2_nand2_1
A_19811_ [\memory_i.i2c_master.state_10_\ _13116_ _13126_] _13150_ d_lut_sg13g2_nand3_1
A_19812_ [_13149_ _13150_ _13086_] _00015_ d_lut_sg13g2_a21oi_1
A_19813_ [_13139_ _13107_ \memory_i.i2c_master.state_0_\] _13151_ d_lut_sg13g2_o21ai_1
A_19814_ [_13085_ _13151_] _00013_ d_lut_sg13g2_nand2b_1
A_19815_ [\memory_i.freq_inst.transmit_state_3_\ \memory_i.freq_inst.transmit_state_1_\] _13152_ d_lut_sg13g2_nor2_1
A_19816_ [\memory_i.freq_inst.transmit_counter_2_\ \memory_i.freq_inst.transmit_counter_1_\ \memory_i.freq_inst.transmit_counter_0_\] _13153_ d_lut_sg13g2_nor3_1
A_19817_ [\memory_i.freq_inst.transmit_counter_3_\ _13153_] _13154_ d_lut_sg13g2_nand2b_1
A_19818_ [_13154_] _13155_ d_lut_sg13g2_buf_1
A_19819_ [\memory_i.freq_inst.transmit_counter_5_\ \memory_i.freq_inst.transmit_counter_4_\ _13155_] _13156_ d_lut_sg13g2_nor3_1
A_19820_ [_13156_] _13157_ d_lut_sg13g2_inv_1
A_19821_ [\memory_i.freq_inst.transmit_counter_7_\ \memory_i.freq_inst.transmit_counter_6_\ _13157_] _13158_ d_lut_sg13g2_nor3_1
A_19822_ [_13152_ _13158_] _13159_ d_lut_sg13g2_nor2_1
A_19823_ [\memory_i.freq_inst.transmit_state_1_\ _13159_] _13160_ d_lut_sg13g2_nor2_1
A_19824_ [\memory_i.freq_inst.transmit_counter_7_\ \memory_i.freq_inst.transmit_counter_6_\ \memory_i.freq_inst.transmit_counter_5_\] _13161_ d_lut_sg13g2_nor3_1
A_19825_ [\memory_i.freq_inst.transmit_state_3_\ _13161_ \memory_i.freq_inst.reset_n\] _13162_ d_lut_sg13g2_o21ai_1
A_19826_ [_13160_ _13162_] _00012_ d_lut_sg13g2_nor2_1
A_19827_ [\memory_i.freq_inst.cordic.shift_value_0_\] _13163_ d_lut_sg13g2_inv_1
A_19828_ [_13163_] _13164_ d_lut_sg13g2_buf_4
A_19829_ [_13164_] _13165_ d_lut_sg13g2_buf_4
A_19830_ [_13165_] _13166_ d_lut_sg13g2_buf_2
A_19831_ [_13166_] _13167_ d_lut_sg13g2_buf_2
A_19832_ [_13167_] _13168_ d_lut_sg13g2_buf_2
A_19833_ [\memory_i.freq_inst.cordic.shift_value_4_\ \memory_i.freq_inst.cordic.shift_value_3_\] _13169_ d_lut_sg13g2_nand2_1
A_19834_ [_13169_] _13170_ d_lut_sg13g2_buf_1
A_19835_ [_13170_] _13171_ d_lut_sg13g2_inv_1
A_19836_ [\memory_i.freq_inst.cordic.shift_value_2_\ \memory_i.freq_inst.cordic.shift_value_1_\] _13172_ d_lut_sg13g2_nand2_1
A_19837_ [_13172_] _13173_ d_lut_sg13g2_inv_1
A_19838_ [_13168_ _13171_ _13173_] _13174_ d_lut_sg13g2_nand3_1
A_19839_ [_13174_] _13175_ d_lut_sg13g2_buf_1
A_19840_ [\memory_i.freq_inst.transmit_state_2_\ _13175_] _13176_ d_lut_sg13g2_nand2_1
A_19841_ [_13176_] _13177_ d_lut_sg13g2_buf_1
A_19842_ [\memory_i.freq_inst.start\ \memory_i.freq_inst.transmit_state_0_\] _13178_ d_lut_sg13g2_nand2_1
A_19843_ [\memory_i.freq_inst.reset_n\] _13179_ d_lut_sg13g2_inv_1
A_19844_ [_13179_] _13180_ d_lut_sg13g2_buf_1
A_19845_ [_13177_ _13178_ _13180_] _00011_ d_lut_sg13g2_a21oi_1
A_19846_ [_13171_ _13173_] _13181_ d_lut_sg13g2_nand2_1
A_19847_ [\memory_i.freq_inst.cordic.shift_value_0_\ _13181_] _13182_ d_lut_sg13g2_nor2_1
A_19848_ [_13182_] _13183_ d_lut_sg13g2_buf_1
A_19849_ [_13183_] _13184_ d_lut_sg13g2_buf_1
A_19850_ [_13161_ \memory_i.freq_inst.transmit_state_1_\] _13185_ d_lut_sg13g2_nor2b_1
A_19851_ [\memory_i.freq_inst.transmit_state_3_\ _13158_ _13184_ \memory_i.freq_inst.transmit_state_2_\ _13185_] _13186_ d_lut_sg13g2_a221oi_1
A_19852_ [_13180_ _13186_] _00010_ d_lut_sg13g2_nor2_1
A_19853_ [\memory_i.freq_inst.transmit_state_0_\] _13187_ d_lut_sg13g2_inv_1
A_19854_ [\memory_i.freq_inst.start\ _13187_ \memory_i.freq_inst.reset_n\] _00009_ d_lut_sg13g2_o21ai_1
A_19855_ [\control_i.state_q_2_\] _13188_ d_lut_sg13g2_inv_1
A_19856_ [\alu_i.instruction_6_\ _13012_] _13189_ d_lut_sg13g2_nor2b_1
A_19857_ [_13189_] _13190_ d_lut_sg13g2_buf_1
A_19858_ [_13190_] _13191_ d_lut_sg13g2_buf_1
A_19859_ [_13191_] _13192_ d_lut_sg13g2_buf_1
A_19860_ [\alu_i.funct7_6_\ \alu_i.funct7_1_\ \alu_i.funct7_0_\] _13193_ d_lut_sg13g2_nor3_1
A_19861_ [\alu_i.funct7_5_\ \alu_i.funct7_2_\] _13194_ d_lut_sg13g2_nor2_1
A_19862_ [\alu_i.funct7_4_\ \alu_i.funct7_3_\] _13195_ d_lut_sg13g2_nor2_1
A_19863_ [_13193_ _13194_ _13195_] _13196_ d_lut_sg13g2_nand3_1
A_19864_ [\alu_i.instruction_4_\] _13197_ d_lut_sg13g2_inv_1
A_19865_ [_13197_ \alu_i.instruction_2_\ _13011_] _13198_ d_lut_sg13g2_nor3_1
A_19866_ [\alu_i.instruction_6_\ _13198_] _13199_ d_lut_sg13g2_nand2b_1
A_19867_ [\alu_i.instruction_5_\ _13196_ _13199_] _13200_ d_lut_sg13g2_a21oi_1
A_19868_ [_13200_] _13201_ d_lut_sg13g2_buf_1
A_19869_ [_13201_] _13202_ d_lut_sg13g2_inv_1
A_19870_ [\alu_i.funct3_1_\] _13203_ d_lut_sg13g2_inv_1
A_19871_ [\alu_i.funct3_2_\ _13203_] _13204_ d_lut_sg13g2_nor2_1
A_19872_ [_13203_ \alu_i.funct3_0_\] _13205_ d_lut_sg13g2_nand2_1
A_19873_ [\alu_i.instruction_6_\ \alu_i.instruction_5_\] _13206_ d_lut_sg13g2_nand2_1
A_19874_ [_13206_] _13207_ d_lut_sg13g2_buf_2
A_19875_ [\alu_i.instruction_4_\ \alu_i.instruction_2_\ _13011_ _13207_] _13208_ d_lut_sg13g2_nor4_1
A_19876_ [_13208_] _13209_ d_lut_sg13g2_buf_1
A_19877_ [_13205_ _13201_ _13209_] _13210_ d_lut_sg13g2_a21oi_1
A_19878_ [_13202_ _13204_ _13210_] _13211_ d_lut_sg13g2_a21oi_1
A_19879_ [\alu_i.funct3_0_\] _13212_ d_lut_sg13g2_inv_1
A_19880_ [\alu_i.funct3_1_\ _13212_] _13213_ d_lut_sg13g2_nor2_1
A_19881_ [_13199_ _13196_] _13214_ d_lut_sg13g2_nor2_1
A_19882_ [\alu_i.funct3_2_\ _13213_ _13214_] _13215_ d_lut_sg13g2_nand3_1
A_19883_ [_13215_] _13216_ d_lut_sg13g2_buf_1
A_19884_ [\alu_i.funct7_2_\ _13195_ \alu_i.funct7_5_\] _13217_ d_lut_sg13g2_nand3b_1
A_19885_ [_13199_ _13217_] _13218_ d_lut_sg13g2_nor2_1
A_19886_ [\alu_i.funct3_2_\ _13213_ _13193_ _13218_] _13219_ d_lut_sg13g2_nand4_1
A_19887_ [_13219_] _13220_ d_lut_sg13g2_buf_1
A_19888_ [_13216_ _13220_] _13221_ d_lut_sg13g2_nand2_1
A_19889_ [_13207_ _13198_] _13222_ d_lut_sg13g2_nor2b_1
A_19890_ [_13212_ _13204_ _13222_] _13223_ d_lut_sg13g2_nand3_1
A_19891_ [_13223_] _13224_ d_lut_sg13g2_buf_1
A_19892_ [\alu_i.instruction_1_\ \alu_i.instruction_0_\] _13225_ d_lut_sg13g2_nand2_1
A_19893_ [\alu_i.instruction_4_\ \alu_i.instruction_2_\] _13226_ d_lut_sg13g2_nand2b_1
A_19894_ [_13207_ _13226_] _13227_ d_lut_sg13g2_or2_1
A_19895_ [_13227_] _13228_ d_lut_sg13g2_buf_2
A_19896_ [_13225_ _13228_] _13229_ d_lut_sg13g2_nor2_1
A_19897_ [_13229_] _13230_ d_lut_sg13g2_buf_1
A_19898_ [\alu_i.instruction_4_\ \alu_i.instruction_2_\] _13231_ d_lut_sg13g2_nand2_1
A_19899_ [\alu_i.instruction_6_\ _13011_ _13231_] _13232_ d_lut_sg13g2_nor3_1
A_19900_ [_13232_] _13233_ d_lut_sg13g2_buf_1
A_19901_ [\alu_i.funct3_2_\ _13205_] _13234_ d_lut_sg13g2_nor2_1
A_19902_ [_13234_] _13235_ d_lut_sg13g2_inv_1
A_19903_ [_13193_] _13236_ d_lut_sg13g2_inv_1
A_19904_ [\alu_i.funct3_2_\ \alu_i.funct3_0_\] _13237_ d_lut_sg13g2_or2_1
A_19905_ [\alu_i.funct3_1_\ _13236_ _13237_] _13238_ d_lut_sg13g2_nor3_1
A_19906_ [\alu_i.funct7_4_\ \alu_i.funct7_3_\ _13194_ _13238_] _13239_ d_lut_sg13g2_nand4_1
A_19907_ [_13207_ _13198_] _13240_ d_lut_sg13g2_nand2b_1
A_19908_ [_13235_ _13239_ _13240_] _13241_ d_lut_sg13g2_a21oi_1
A_19909_ [_13189_ _13230_ _13233_ _13241_] _13242_ d_lut_sg13g2_nor4_1
A_19910_ [\alu_i.instruction_5_\ _13218_ _13238_] _13243_ d_lut_sg13g2_nand3_1
A_19911_ [_13243_] _13244_ d_lut_sg13g2_buf_1
A_19912_ [_13214_ _13234_] _13245_ d_lut_sg13g2_nand2_1
A_19913_ [_13245_] _13246_ d_lut_sg13g2_buf_1
A_19914_ [_13224_ _13242_ _13244_ _13246_] _13247_ d_lut_sg13g2_nand4_1
A_19915_ [_13211_ _13221_ _13247_] _13248_ d_lut_sg13g2_nor3_1
A_19916_ [_13188_ _13192_ _13248_] _13249_ d_lut_sg13g2_nor3_1
A_19917_ [\control_i.state_q_4_\ _12953_ _13249_] _13250_ d_lut_sg13g2_a21oi_1
A_19918_ [_00002_ _13250_] _00008_ d_lut_sg13g2_nor2_1
A_19919_ [\control_i.load_access_fault\ \control_i.state_q_6_\] _13251_ d_lut_sg13g2_nor2b_1
A_19920_ [\control_i.state_q_2_\ _13192_ _13251_ _12953_] _13252_ d_lut_sg13g2_a22oi_1
A_19921_ [_00002_ _13252_] _00007_ d_lut_sg13g2_nor2_1
A_19922_ [\control_i.pcflag\] _13253_ d_lut_sg13g2_inv_1
A_19923_ [_13253_] _13254_ d_lut_sg13g2_buf_1
A_19924_ [_13254_] _13255_ d_lut_sg13g2_buf_1
A_19925_ [\csr_i.mie_16_\ \csr_i.mstatus_3_\ \csr_i.mip_16_\] _13256_ d_lut_sg13g2_nand3_1
A_19926_ [_13256_] _13257_ d_lut_sg13g2_buf_1
A_19927_ [\csr_i.mie_11_\ \csr_i.mip_11_\ \csr_i.mip_7_\ \csr_i.mie_7_\] _13258_ d_lut_sg13g2_a22oi_1
A_19928_ [_13258_ \csr_i.mstatus_3_\] _13259_ d_lut_sg13g2_nor2b_1
A_19929_ [_13259_] _13260_ d_lut_sg13g2_inv_1
A_19930_ [_13257_ _13260_] _13261_ d_lut_sg13g2_nand2_1
A_19931_ [_13255_ _13261_] _13262_ d_lut_sg13g2_nor2_1
A_19932_ [\csr_i.pc_1_\ \csr_i.pc_0_\ \control_i.load_access_fault\] _13263_ d_lut_sg13g2_nor3_1
A_19933_ [\control_i.state_q_5_\ _12953_ _13263_] _13264_ d_lut_sg13g2_and3_1
A_19934_ [\control_i.jump_to_isr\ \control_i.state_q_0_\ _13262_ _13264_] _13265_ d_lut_sg13g2_nor4_1
A_19935_ [_00002_ _13265_] _00006_ d_lut_sg13g2_nor2_1
A_19936_ [_12953_ reset] _13266_ d_lut_sg13g2_nand2b_1
A_19937_ [\control_i.state_q_4_\ _13251_] _13267_ d_lut_sg13g2_nor2_1
A_19938_ [_13266_ _13267_] _00005_ d_lut_sg13g2_nor2_1
A_19939_ [\control_i.state_q_5_\ _13263_ \control_i.state_q_3_\] _13268_ d_lut_sg13g2_a21oi_1
A_19940_ [_13266_ _13268_] _00004_ d_lut_sg13g2_nor2_1
A_19941_ [\control_i.state_q_6_\ \control_i.load_access_fault\ \control_i.state_q_5_\] _13269_ d_lut_sg13g2_a21oi_1
A_19942_ [_13263_ _13269_] _13270_ d_lut_sg13g2_nor2_1
A_19943_ [\control_i.state_q_2_\ _13248_ _13261_ \control_i.pcflag\ _13270_] _13271_ d_lut_sg13g2_a221oi_1
A_19944_ [_00002_ _13271_] _00003_ d_lut_sg13g2_nor2_1
A_19945_ [\memory_i.uart_receiver.cycle_counter_1_\ \memory_i.uart_receiver.CYCLES_PER_BIT_1_\] _13272_ d_lut_sg13g2_xor2_1
A_19946_ [\memory_i.uart_receiver.cycle_counter_0_\ \memory_i.uart_receiver.CYCLES_PER_BIT_0_\] _13273_ d_lut_sg13g2_xor2_1
A_19947_ [\memory_i.uart_receiver.cycle_counter_5_\ \memory_i.uart_receiver.CYCLES_PER_BIT_5_\] _13274_ d_lut_sg13g2_xor2_1
A_19948_ [\memory_i.uart_receiver.cycle_counter_2_\ \memory_i.uart_receiver.CYCLES_PER_BIT_2_\] _13275_ d_lut_sg13g2_xor2_1
A_19949_ [_13272_ _13273_ _13274_ _13275_] _13276_ d_lut_sg13g2_nor4_1
A_19950_ [\memory_i.uart_receiver.cycle_counter_9_\ \memory_i.uart_receiver.CYCLES_PER_BIT_9_\] _13277_ d_lut_sg13g2_xor2_1
A_19951_ [\memory_i.uart_receiver.cycle_counter_10_\ \memory_i.uart_receiver.CYCLES_PER_BIT_10_\] _13278_ d_lut_sg13g2_xor2_1
A_19952_ [\memory_i.uart_receiver.cycle_counter_8_\ \memory_i.uart_receiver.CYCLES_PER_BIT_8_\] _13279_ d_lut_sg13g2_xor2_1
A_19953_ [\memory_i.uart_receiver.cycle_counter_12_\ \memory_i.uart_receiver.CYCLES_PER_BIT_12_\] _13280_ d_lut_sg13g2_xor2_1
A_19954_ [_13277_ _13278_ _13279_ _13280_] _13281_ d_lut_sg13g2_nor4_1
A_19955_ [\memory_i.uart_receiver.cycle_counter_7_\ \memory_i.uart_receiver.CYCLES_PER_BIT_7_\] _13282_ d_lut_sg13g2_xor2_1
A_19956_ [\memory_i.uart_receiver.cycle_counter_13_\ \memory_i.uart_receiver.CYCLES_PER_BIT_13_\] _13283_ d_lut_sg13g2_xor2_1
A_19957_ [\memory_i.uart_receiver.cycle_counter_3_\ \memory_i.uart_receiver.CYCLES_PER_BIT_3_\] _13284_ d_lut_sg13g2_xor2_1
A_19958_ [_13282_ _13283_ _13284_] _13285_ d_lut_sg13g2_nor3_1
A_19959_ [\memory_i.uart_receiver.cycle_counter_6_\ \memory_i.uart_receiver.CYCLES_PER_BIT_6_\] _13286_ d_lut_sg13g2_xor2_1
A_19960_ [\memory_i.uart_receiver.cycle_counter_11_\ \memory_i.uart_receiver.CYCLES_PER_BIT_11_\] _13287_ d_lut_sg13g2_xor2_1
A_19961_ [\memory_i.uart_receiver.cycle_counter_14_\ \memory_i.uart_receiver.CYCLES_PER_BIT_14_\] _13288_ d_lut_sg13g2_xor2_1
A_19962_ [\memory_i.uart_receiver.cycle_counter_4_\ \memory_i.uart_receiver.CYCLES_PER_BIT_4_\] _13289_ d_lut_sg13g2_xor2_1
A_19963_ [_13286_ _13287_ _13288_ _13289_] _13290_ d_lut_sg13g2_nor4_1
A_19964_ [_13276_ _13281_ _13285_ _13290_] _13291_ d_lut_sg13g2_nand4_1
A_19965_ [_13291_] _13292_ d_lut_sg13g2_buf_1
A_19966_ [\memory_i.uart_receiver.CYCLES_PER_BIT_15_\] _13293_ d_lut_sg13g2_inv_1
A_19967_ [\memory_i.uart_receiver.fsm_state_3_\ \memory_i.uart_receiver.cycle_counter_15_\ _13293_] _13294_ d_lut_sg13g2_nor3_1
A_19968_ [\memory_i.uart_receiver.cycle_counter_15_\ _13293_ _13294_] _13295_ d_lut_sg13g2_a21oi_1
A_19969_ [_13292_ _13295_] _13296_ d_lut_sg13g2_nand2b_1