*SPICE netlist created from verilog structural netlist module riscv_top by vlog2Spice (qflow)
*This file may contain array delimiters, not for use in simulation.

.include /foss/pdks/ihp-sg13g2/libs.ref/sg13g2_stdcell/spice/sg13g2_stdcell.spice

.subckt riscv_top VPWR VGND clk reset so si sclk
+ sram_ce sda_i sda_o sda_oe scl rx tx gpio_in[0]
+ gpio_in[1] gpio_in[2] gpio_in[3] gpio_out[0] gpio_out[1] gpio_out[2] gpio_out[3] analog_en
+ I_ae ds_I_oe ds_I_p_i ds_I_p_o ds_I_n_i ds_I_n_o lo_I_oe lo_I_i
+ lo_I_o lo_Ix_i lo_Ix_o lo_Qx_i lo_Qx_o lo_Q_i lo_Q_o lo_Q_oe
+ ds_Q_n_i ds_Q_n_o ds_Q_p_i ds_Q_p_o ds_Q_oe Q_ae 

X_19574_ _12937_ \memory_i.freq_inst.dsmod_cos.i_ena_mod\ \memory_i.freq_inst.lo_gen.lo_i_r\ VPWR VGND sg13g2_nand2_1
X_19575_ _12938_ \memory_i.freq_inst.dsmod_cos.i_ena_mod\ VPWR VGND sg13g2_inv_1
X_19576_ _12939_ _12938_ VPWR VGND sg13g2_buf_1
X_19577_ _12940_ _12939_ VPWR VGND sg13g2_buf_1
X_19578_ _12941_ _12940_ VPWR VGND sg13g2_buf_1
X_19579_ _12942_ _12941_ \memory_i.freq_inst.lo_gen.lo_q_r\ VPWR VGND sg13g2_nand2_1
X_19580_ _12943_ \memory_i.freq_inst.cordic.rstn_i\ VPWR VGND sg13g2_inv_1
X_19581_ _12944_ _12943_ VPWR VGND sg13g2_buf_1
X_19582_ _12945_ _12944_ VPWR VGND sg13g2_buf_1
X_19583_ _12946_ _12945_ VPWR VGND sg13g2_buf_1
X_19584_ _01973_ _12937_ _12942_ _12946_ VPWR VGND sg13g2_a21oi_1
X_19585_ _00045_ \memory_i.sram_master.clk_counter[0]\ VPWR VGND sg13g2_inv_1
X_19586_ _12947_ reset VPWR VGND sg13g2_inv_1
X_19587_ _12948_ _12947_ VPWR VGND sg13g2_buf_1
X_19588_ _12949_ _12948_ VPWR VGND sg13g2_buf_1
X_19589_ _12950_ _12949_ VPWR VGND sg13g2_buf_1
X_19590_ _00002_ _12950_ VPWR VGND sg13g2_buf_1
X_19591_ _12951_ \memory_i.state[2]\ \memory_i.state[4]\ VPWR VGND sg13g2_or2_1
X_19592_ _12952_ _12951_ VPWR VGND sg13g2_buf_1
X_19593_ _12953_ \memory_i.state[1]\ \memory_i.state[6]\ _12952_ VPWR VGND sg13g2_nor3_1
X_19594_ _00001_ reset \control_i.state_q[3]\ _12953_ VPWR VGND sg13g2_and3_1
X_19595_ _00000_ reset \control_i.state_q[7]\ VPWR VGND sg13g2_and2_1
X_19596_ _12954_ \control_i.state_q[6]\ \control_i.state_q[4]\ VPWR VGND sg13g2_or2_1
X_19597_ _12955_ _12954_ VPWR VGND sg13g2_buf_1
X_19598_ _12956_ _12955_ VPWR VGND sg13g2_buf_1
X_19599_ _12957_ \control_i.state_q[3]\ \control_i.state_q[5]\ _12956_ VPWR VGND sg13g2_nor3_1
X_19600_ _12958_ _12957_ VPWR VGND sg13g2_buf_1
X_19601_ _12959_ _12947_ _12958_ VPWR VGND sg13g2_nor2_1
X_19602_ _00031_ _12959_ VPWR VGND sg13g2_inv_1
X_19603_ _12960_ \memory_i.sclk_flag\ VPWR VGND sg13g2_inv_1
X_19604_ _12961_ \memory_i.uart_transmitter.fsm_state[1]\ \memory_i.uart_transmitter.fsm_state[0]\ VPWR VGND sg13g2_nor2_1
X_19605_ _12962_ \memory_i.sram_master.state[3]\ VPWR VGND sg13g2_inv_1
X_19606_ _12963_ \memory_i.sram_master.state[0]\ VPWR VGND sg13g2_inv_1
X_19607_ _12964_ _12962_ _12963_ \memory_i.target[2]\ VPWR VGND sg13g2_a21oi_1
X_19608_ _12965_ \memory_i.target[2]\ _12961_ _12964_ VPWR VGND sg13g2_a21oi_1
X_19609_ _12966_ \memory_i.i2c_master.state[4]\ \memory_i.i2c_master.state[0]\ \memory_i.target[3]\ VPWR VGND sg13g2_o21ai_1
X_19610_ _12967_ \memory_i.target[3]\ _12965_ _12966_ VPWR VGND sg13g2_o21ai_1
X_19611_ _12968_ _12967_ VPWR VGND sg13g2_inv_1
X_19612_ _12969_ _12960_ _12968_ VPWR VGND sg13g2_nor2_1
X_19613_ _12970_ _00031_ _12969_ VPWR VGND sg13g2_nor2_1
X_19614_ _12971_ \rd_alu[25]\ \rd_alu[26]\ \rd_alu[24]\ VPWR VGND sg13g2_nor3_1
X_19615_ _12972_ \rd_alu[29]\ \rd_alu[30]\ VPWR VGND sg13g2_or2_1
X_19616_ _12973_ \rd_alu[28]\ \rd_alu[31]\ \rd_alu[27]\ _12972_ VPWR 
+ VGND
+ sg13g2_nor4_1
X_19617_ _12974_ \control_i.state_q[6]\ \control_i.state_q[4]\ VPWR VGND sg13g2_nor2_1
X_19618_ _12975_ _12974_ VPWR VGND sg13g2_buf_1
X_19619_ _12976_ _12971_ _12973_ _12975_ VPWR VGND sg13g2_a21oi_1
X_19620_ _12977_ \rd_alu[23]\ _12955_ VPWR VGND sg13g2_nand2_1
X_19621_ _12978_ _12977_ VPWR VGND sg13g2_buf_1
X_19622_ _12979_ _12976_ _12978_ VPWR VGND sg13g2_nor2b_1
X_19623_ _12980_ _12979_ VPWR VGND sg13g2_buf_1
X_19624_ _12981_ \rd_alu[2]\ VPWR VGND sg13g2_inv_1
X_19625_ _12982_ \csr_i.pc[13]\ \csr_i.pc[12]\ \csr_i.pc[11]\ \csr_i.pc[6]\ VPWR 
+ VGND
+ sg13g2_nor4_1
X_19626_ _12983_ \csr_i.pc[10]\ \csr_i.pc[9]\ VPWR VGND sg13g2_or2_1
X_19627_ _12984_ \csr_i.pc[8]\ \csr_i.pc[7]\ _12983_ VPWR VGND sg13g2_nor3_1
X_19628_ _12985_ \csr_i.pc[21]\ \csr_i.pc[20]\ \csr_i.pc[19]\ \csr_i.pc[14]\ VPWR 
+ VGND
+ sg13g2_nor4_1
X_19629_ _12986_ \csr_i.pc[18]\ \csr_i.pc[17]\ \csr_i.pc[16]\ \csr_i.pc[15]\ VPWR 
+ VGND
+ sg13g2_nor4_1
X_19630_ _12987_ _12982_ _12984_ _12985_ _12986_ VPWR 
+ VGND
+ sg13g2_nand4_1
X_19631_ _12988_ \rd_alu[10]\ \rd_alu[7]\ \rd_alu[6]\ \rd_alu[8]\ VPWR 
+ VGND
+ sg13g2_nor4_1
X_19632_ _12989_ \rd_alu[21]\ \rd_alu[19]\ \rd_alu[13]\ \rd_alu[9]\ VPWR 
+ VGND
+ sg13g2_nor4_1
X_19633_ _12990_ \rd_alu[20]\ \rd_alu[18]\ \rd_alu[17]\ \rd_alu[11]\ VPWR 
+ VGND
+ sg13g2_nor4_1
X_19634_ _12991_ \rd_alu[16]\ \rd_alu[15]\ \rd_alu[14]\ \rd_alu[12]\ VPWR 
+ VGND
+ sg13g2_nor4_1
X_19635_ _12992_ _12988_ _12989_ _12990_ _12991_ VPWR 
+ VGND
+ sg13g2_nand4_1
X_19636_ _12993_ _12987_ _12992_ _12955_ VPWR VGND sg13g2_mux2_1
X_19637_ _12994_ \csr_i.pc[5]\ \csr_i.pc[4]\ _12955_ VPWR VGND sg13g2_nor3_1
X_19638_ _12995_ \rd_alu[5]\ \rd_alu[4]\ _12975_ VPWR VGND sg13g2_nor3_1
X_19639_ _12996_ \csr_i.pc[3]\ _12975_ VPWR VGND sg13g2_and2_1
X_19640_ _12997_ \rd_alu[3]\ _12955_ _12996_ VPWR VGND sg13g2_a21oi_1
X_19641_ _12998_ _12994_ _12995_ _12997_ VPWR VGND sg13g2_o21ai_1
X_19642_ _12999_ \rd_alu[22]\ _12976_ _12993_ _12998_ VPWR 
+ VGND
+ sg13g2_nor4_1
X_19643_ _13000_ _12978_ _12999_ VPWR VGND sg13g2_nand2b_1
X_19644_ _13001_ \rd_alu[0]\ _12955_ VPWR VGND sg13g2_and2_1
X_19645_ _13002_ \csr_i.pc[0]\ _12975_ _13001_ VPWR VGND sg13g2_a21oi_1
X_19646_ _13003_ _13002_ VPWR VGND sg13g2_buf_1
X_19647_ _13004_ \csr_i.pc[1]\ VPWR VGND sg13g2_inv_1
X_19648_ _13005_ _13004_ _12955_ VPWR VGND sg13g2_nor2_1
X_19649_ _13006_ \rd_alu[1]\ _12955_ _13005_ VPWR VGND sg13g2_a21oi_1
X_19650_ _13007_ _13003_ _13006_ VPWR VGND sg13g2_nand2_1
X_19651_ _13008_ _12981_ _13000_ _13007_ VPWR VGND sg13g2_or3_1
X_19652_ _13009_ _12980_ _13008_ VPWR VGND sg13g2_nor2b_1
X_19653_ _13010_ \alu_i.instruction[3]\ \alu_i.instruction[1]\ \alu_i.instruction[0]\ VPWR VGND sg13g2_nand3b_1
X_19654_ _13011_ _13010_ VPWR VGND sg13g2_buf_2
X_19655_ _13012_ \alu_i.instruction[4]\ \alu_i.instruction[2]\ _13011_ VPWR VGND sg13g2_nor3_1
X_19656_ _13013_ \alu_i.instruction[5]\ _13012_ VPWR VGND sg13g2_and2_1
X_19657_ _13014_ _13013_ VPWR VGND sg13g2_buf_1
X_19658_ _13015_ \alu_i.instruction[6]\ _13014_ VPWR VGND sg13g2_nor2b_1
X_19659_ _13016_ _12956_ _13015_ VPWR VGND sg13g2_and2_1
X_19660_ _13017_ _13016_ VPWR VGND sg13g2_buf_1
X_19661_ _13018_ \memory_i.state[0]\ _12959_ VPWR VGND sg13g2_nand2_1
X_19662_ _13019_ _13018_ VPWR VGND sg13g2_buf_1
X_19663_ _13020_ _13019_ VPWR VGND sg13g2_buf_1
X_19664_ _13021_ _13009_ _13017_ _13020_ VPWR VGND sg13g2_nor3_1
X_19665_ _00033_ \memory_i.state[2]\ _12970_ _13021_ VPWR VGND sg13g2_a21o_1
X_19666_ _13022_ _12980_ VPWR VGND sg13g2_buf_1
X_19667_ _13023_ _13022_ VPWR VGND sg13g2_buf_1
X_19668_ _13024_ _13020_ VPWR VGND sg13g2_buf_1
X_19669_ _13025_ _12975_ VPWR VGND sg13g2_buf_1
X_19670_ _13026_ \csr_i.pc[2]\ _13025_ VPWR VGND sg13g2_nand2_1
X_19671_ _13027_ _12981_ _13025_ _13026_ VPWR VGND sg13g2_o21ai_1
X_19672_ _13028_ _13007_ _13027_ VPWR VGND sg13g2_nand2_1
X_19673_ _13029_ _12999_ _13028_ VPWR VGND sg13g2_and2_1
X_19674_ _13030_ \csr_i.pc[5]\ \csr_i.pc[4]\ \csr_i.pc[3]\ VPWR VGND sg13g2_nand3_1
X_19675_ _13031_ _13030_ VPWR VGND sg13g2_buf_1
X_19676_ _13032_ \rd_alu[22]\ \rd_alu[2]\ _12978_ _13007_ VPWR 
+ VGND
+ sg13g2_nor4_1
X_19677_ _13033_ _13031_ _13032_ VPWR VGND sg13g2_nor2_1
X_19678_ _13034_ \csr_i.pc[22]\ _13031_ _13033_ VPWR VGND sg13g2_a21oi_1
X_19679_ _13035_ \rd_alu[22]\ VPWR VGND sg13g2_inv_1
X_19680_ _13036_ \rd_alu[5]\ \rd_alu[4]\ \rd_alu[3]\ VPWR VGND sg13g2_nand3_1
X_19681_ _13037_ _13035_ _13036_ _13032_ VPWR VGND sg13g2_a21oi_1
X_19682_ _13038_ _12956_ _13037_ _12993_ VPWR VGND sg13g2_a21oi_1
X_19683_ _13039_ _12956_ _13034_ _13038_ VPWR VGND sg13g2_o21ai_1
X_19684_ _13040_ _12971_ _13039_ VPWR VGND sg13g2_and2_1
X_19685_ _13041_ _12976_ _12978_ _13029_ _13040_ VPWR 
+ VGND
+ sg13g2_nor4_1
X_19686_ _13042_ _13000_ _12981_ VPWR VGND sg13g2_nand2b_1
X_19687_ _13043_ _13042_ VPWR VGND sg13g2_buf_1
X_19688_ _13044_ _13003_ _13006_ _13043_ VPWR VGND sg13g2_nor3_1
X_19689_ _13045_ _13041_ _13044_ VPWR VGND sg13g2_nor2_1
X_19690_ _00032_ _13023_ _13024_ _13045_ VPWR VGND sg13g2_nor3_1
X_19691_ _13046_ \memory_i.sram_master.write_reg\ VPWR VGND sg13g2_inv_1
X_19692_ _13047_ \memory_i.sram_master.index[2]\ \memory_i.sram_master.index[1]\ \memory_i.sram_master.index[0]\ VPWR VGND sg13g2_nor3_1
X_19693_ _13048_ _13047_ VPWR VGND sg13g2_buf_1
X_19694_ _13049_ \memory_i.sram_master.index[3]\ _13048_ VPWR VGND sg13g2_nor2b_1
X_19695_ _13050_ _13049_ VPWR VGND sg13g2_buf_1
X_19696_ _13051_ \memory_i.sram_master.index[4]\ _13050_ VPWR VGND sg13g2_nand2b_1
X_19697_ _13052_ _13051_ VPWR VGND sg13g2_buf_1
X_19698_ _13053_ \memory_i.sram_master.index[6]\ \memory_i.sram_master.index[5]\ _13052_ VPWR VGND sg13g2_nor3_1
X_19699_ _13054_ \memory_i.sram_master.index[7]\ _13053_ VPWR VGND sg13g2_nor2b_1
X_19700_ _13055_ _13054_ VPWR VGND sg13g2_buf_1
X_19701_ _13056_ _13046_ \memory_i.sram_master.posedge_trigger\ \memory_i.sram_master.state[2]\ _13055_ VPWR 
+ VGND
+ sg13g2_nand4_1
X_19702_ _13057_ \memory_i.sram_master.posedge_trigger\ VPWR VGND sg13g2_inv_1
X_19703_ _13058_ _13057_ \memory_i.sram_master.state[6]\ VPWR VGND sg13g2_nand2_1
X_19704_ _13059_ reset \memory_i.target[0]\ _12952_ VPWR VGND sg13g2_nand3_1
X_19705_ _13060_ _13059_ VPWR VGND sg13g2_buf_1
X_19706_ _00030_ _13056_ _13058_ _13060_ VPWR VGND sg13g2_a21oi_1
X_19707_ _13061_ \memory_i.sram_master.write_reg\ \memory_i.sram_master.posedge_trigger\ \memory_i.sram_master.state[2]\ _13055_ VPWR 
+ VGND
+ sg13g2_nand4_1
X_19708_ _13062_ \alu_i.funct3[1]\ _13025_ VPWR VGND sg13g2_nor2_1
X_19709_ _13063_ \alu_i.funct3[0]\ \memory_i.sram_master.index[3]\ VPWR VGND sg13g2_xor2_1
X_19710_ _13064_ \memory_i.sram_master.index[4]\ _13062_ _13063_ VPWR VGND sg13g2_nand3_1
X_19711_ _13065_ \memory_i.sram_master.index[4]\ \memory_i.sram_master.index[3]\ _13062_ VPWR VGND sg13g2_or3_1
X_19712_ _13066_ \memory_i.sram_master.index[5]\ VPWR VGND sg13g2_inv_1
X_19713_ _13067_ \memory_i.sram_master.index[7]\ \memory_i.sram_master.index[6]\ VPWR VGND sg13g2_nor2_1
X_19714_ _13068_ _13066_ \memory_i.sram_master.posedge_trigger\ _13048_ _13067_ VPWR 
+ VGND
+ sg13g2_nand4_1
X_19715_ _13069_ _13064_ _13065_ _13068_ VPWR VGND sg13g2_a21oi_1
X_19716_ _13070_ _13069_ VPWR VGND sg13g2_inv_1
X_19717_ _13071_ \memory_i.sram_master.state[5]\ _13070_ VPWR VGND sg13g2_nand2_1
X_19718_ _00029_ _13061_ _13071_ _13060_ VPWR VGND sg13g2_a21oi_1
X_19719_ _13072_ \memory_i.sram_master.index[5]\ _13052_ VPWR VGND sg13g2_nor2_1
X_19720_ _13073_ _13072_ _13067_ VPWR VGND sg13g2_nand2_1
X_19721_ _13074_ \memory_i.sram_master.negedge_trigger\ \memory_i.sram_master.state[0]\ \memory_i.sram_master.state[4]\ VPWR VGND sg13g2_a21o_1
X_19722_ _13075_ \memory_i.sram_master.state[4]\ _13073_ _13074_ _13057_ VPWR 
+ VGND
+ sg13g2_a22oi_1
X_19723_ _00028_ _13060_ _13075_ VPWR VGND sg13g2_nor2_1
X_19724_ _13076_ \memory_i.sram_master.state[5]\ \memory_i.sram_master.state[1]\ VPWR VGND sg13g2_nor2_1
X_19725_ _13077_ _13076_ _13069_ VPWR VGND sg13g2_nand2b_1
X_19726_ _00027_ _12962_ _13077_ _13060_ VPWR VGND sg13g2_a21oi_1
X_19727_ _13078_ \memory_i.sram_master.posedge_trigger\ \memory_i.sram_master.state[4]\ _13055_ VPWR VGND sg13g2_nand3_1
X_19728_ _13079_ _13057_ _13073_ \memory_i.sram_master.state[2]\ VPWR VGND sg13g2_o21ai_1
X_19729_ _00026_ _13078_ _13079_ _13060_ VPWR VGND sg13g2_a21oi_1
X_19730_ _13080_ \memory_i.sram_master.posedge_trigger\ \memory_i.sram_master.state[6]\ \memory_i.sram_master.state[1]\ _13070_ VPWR 
+ VGND
+ sg13g2_a22oi_1
X_19731_ _00025_ _13060_ _13080_ VPWR VGND sg13g2_nor2_1
X_19732_ _13081_ \memory_i.sram_master.posedge_trigger\ \memory_i.sram_master.negedge_trigger\ VPWR VGND sg13g2_nor2b_1
X_19733_ _13082_ _13081_ VPWR VGND sg13g2_buf_1
X_19734_ _13083_ _13082_ \memory_i.sram_master.state[0]\ VPWR VGND sg13g2_nand2b_1
X_19735_ _00024_ _13060_ _13083_ VPWR VGND sg13g2_nand2b_1
X_19736_ _13084_ reset \memory_i.target[3]\ _12952_ VPWR VGND sg13g2_nand3_1
X_19737_ _13085_ _13084_ VPWR VGND sg13g2_buf_1
X_19738_ _13086_ _13085_ VPWR VGND sg13g2_buf_1
X_19739_ _13087_ \memory_i.i2c_master.scl_ratio[3]\ \memory_i.i2c_master.scl_counter[2]\ VPWR VGND sg13g2_xor2_1
X_19740_ _13088_ \memory_i.i2c_master.scl_ratio[13]\ \memory_i.i2c_master.scl_counter[12]\ VPWR VGND sg13g2_xor2_1
X_19741_ _13089_ \memory_i.i2c_master.scl_ratio[10]\ \memory_i.i2c_master.scl_counter[9]\ VPWR VGND sg13g2_xor2_1
X_19742_ _13090_ \memory_i.i2c_master.scl_ratio[8]\ \memory_i.i2c_master.scl_counter[7]\ VPWR VGND sg13g2_xor2_1
X_19743_ _13091_ _13087_ _13088_ _13089_ _13090_ VPWR 
+ VGND
+ sg13g2_nor4_1
X_19744_ _13092_ \memory_i.i2c_master.scl_ratio[5]\ \memory_i.i2c_master.scl_counter[4]\ VPWR VGND sg13g2_xor2_1
X_19745_ _13093_ \memory_i.i2c_master.scl_ratio[2]\ \memory_i.i2c_master.scl_counter[1]\ VPWR VGND sg13g2_xor2_1
X_19746_ _13094_ \memory_i.i2c_master.scl_ratio[6]\ \memory_i.i2c_master.scl_counter[5]\ VPWR VGND sg13g2_xor2_1
X_19747_ _13095_ \memory_i.i2c_master.scl_ratio[15]\ \memory_i.i2c_master.scl_counter[14]\ VPWR VGND sg13g2_xor2_1
X_19748_ _13096_ _13092_ _13093_ _13094_ _13095_ VPWR 
+ VGND
+ sg13g2_nor4_1
X_19749_ _13097_ \memory_i.i2c_master.scl_ratio[1]\ \memory_i.i2c_master.scl_counter[0]\ VPWR VGND sg13g2_xor2_1
X_19750_ _13098_ \memory_i.i2c_master.scl_ratio[11]\ \memory_i.i2c_master.scl_counter[10]\ VPWR VGND sg13g2_xor2_1
X_19751_ _13099_ \memory_i.i2c_master.scl_ratio[4]\ \memory_i.i2c_master.scl_counter[3]\ VPWR VGND sg13g2_xor2_1
X_19752_ _13100_ \memory_i.i2c_master.scl_ratio[12]\ \memory_i.i2c_master.scl_counter[11]\ VPWR VGND sg13g2_xor2_1
X_19753_ _13101_ _13097_ _13098_ _13099_ _13100_ VPWR 
+ VGND
+ sg13g2_nor4_1
X_19754_ _13102_ \memory_i.i2c_master.scl_ratio[14]\ \memory_i.i2c_master.scl_counter[13]\ VPWR VGND sg13g2_xor2_1
X_19755_ _13103_ \memory_i.i2c_master.scl_ratio[7]\ \memory_i.i2c_master.scl_counter[6]\ VPWR VGND sg13g2_xor2_1
X_19756_ _13104_ \memory_i.i2c_master.scl_ratio[9]\ \memory_i.i2c_master.scl_counter[8]\ VPWR VGND sg13g2_xor2_1
X_19757_ _13105_ \memory_i.i2c_master.scl_counter[15]\ _13102_ _13103_ _13104_ VPWR 
+ VGND
+ sg13g2_nor4_1
X_19758_ _13106_ _13091_ _13096_ _13101_ _13105_ VPWR 
+ VGND
+ sg13g2_nand4_1
X_19759_ _13107_ _13106_ VPWR VGND sg13g2_buf_1
X_19760_ _13108_ \memory_i.i2c_master.state[3]\ \memory_i.i2c_master.state[10]\ VPWR VGND sg13g2_nor2_1
X_19761_ _13109_ \memory_i.i2c_master.state[8]\ _13108_ VPWR VGND sg13g2_nand2b_1
X_19762_ _13110_ \memory_i.i2c_master.state[1]\ \memory_i.i2c_master.state[5]\ VPWR VGND sg13g2_or2_1
X_19763_ _13111_ _13110_ VPWR VGND sg13g2_buf_1
X_19764_ _13112_ \memory_i.i2c_master.state[6]\ \memory_i.i2c_master.state[9]\ VPWR VGND sg13g2_or2_1
X_19765_ _13113_ \memory_i.i2c_master.state[2]\ _13109_ _13111_ _13112_ VPWR 
+ VGND
+ sg13g2_nor4_1
X_19766_ _13114_ scl _13107_ _13113_ VPWR VGND sg13g2_nor3_1
X_19767_ _13115_ _13114_ VPWR VGND sg13g2_buf_1
X_19768_ _13116_ _13115_ VPWR VGND sg13g2_buf_1
X_19769_ _13117_ \memory_i.i2c_master.frame_index[0]\ VPWR VGND sg13g2_inv_1
X_19770_ _13118_ \memory_i.i2c_master.frame_index[1]\ \memory_i.i2c_mask[2]\ \memory_i.i2c_mask[0]\ VPWR VGND sg13g2_a21oi_1
X_19771_ _13119_ \memory_i.i2c_mask[1]\ \memory_i.i2c_mask[0]\ \memory_i.i2c_master.frame_index[1]\ VPWR VGND sg13g2_o21ai_1
X_19772_ _13120_ _13117_ _13118_ _13119_ VPWR VGND sg13g2_o21ai_1
X_19773_ _13121_ \memory_i.i2c_master.write\ \memory_i.i2c_master.state[2]\ _13120_ \memory_i.i2c_master.state[1]\ VPWR 
+ VGND
+ sg13g2_a22oi_1
X_19774_ _13122_ _13121_ VPWR VGND sg13g2_inv_1
X_19775_ _13123_ \memory_i.i2c_master.index[1]\ \memory_i.i2c_master.index[0]\ VPWR VGND sg13g2_or2_1
X_19776_ _13124_ _13123_ VPWR VGND sg13g2_buf_1
X_19777_ _13125_ \memory_i.i2c_master.index[2]\ _13124_ VPWR VGND sg13g2_nor2_1
X_19778_ _13126_ _13125_ VPWR VGND sg13g2_buf_1
X_19779_ _13127_ _13116_ _13126_ VPWR VGND sg13g2_nand2_1
X_19780_ _13128_ _13116_ _13122_ _13127_ \memory_i.i2c_master.state[10]\ VPWR 
+ VGND
+ sg13g2_a22oi_1
X_19781_ _00014_ _13086_ _13128_ VPWR VGND sg13g2_nor2_1
X_19782_ _13129_ \memory_i.i2c_master.state[3]\ _13116_ _13126_ VPWR VGND sg13g2_nand3_1
X_19783_ _13130_ _13115_ VPWR VGND sg13g2_inv_1
X_19784_ _13131_ \memory_i.i2c_master.state[9]\ _13130_ VPWR VGND sg13g2_nand2_1
X_19785_ _00023_ _13129_ _13131_ _13086_ VPWR VGND sg13g2_a21oi_1
X_19786_ _13132_ \memory_i.i2c_master.write\ VPWR VGND sg13g2_inv_1
X_19787_ _13133_ _13132_ \memory_i.i2c_master.state[2]\ \memory_i.i2c_master.state[5]\ _13120_ VPWR 
+ VGND
+ sg13g2_a22oi_1
X_19788_ _13134_ _13133_ VPWR VGND sg13g2_inv_1
X_19789_ _13135_ \memory_i.i2c_master.state[8]\ _13127_ _13134_ _13116_ VPWR 
+ VGND
+ sg13g2_a22oi_1
X_19790_ _00022_ _13086_ _13135_ VPWR VGND sg13g2_nor2_1
X_19791_ _13136_ _13120_ _13111_ VPWR VGND sg13g2_nand2b_1
X_19792_ _13137_ _13107_ _13136_ VPWR VGND sg13g2_nor2_1
X_19793_ _13138_ \memory_i.i2c_master.state[7]\ _13137_ VPWR VGND sg13g2_nor2_1
X_19794_ _13139_ scl VPWR VGND sg13g2_inv_1
X_19795_ _13140_ _13139_ _13107_ VPWR VGND sg13g2_nor2_1
X_19796_ _13141_ _13140_ VPWR VGND sg13g2_buf_1
X_19797_ _00021_ _13085_ _13138_ _13141_ VPWR VGND sg13g2_nor3_1
X_19798_ _13142_ \memory_i.i2c_master.state[6]\ _13130_ _13141_ \memory_i.i2c_master.state[0]\ VPWR 
+ VGND
+ sg13g2_a22oi_1
X_19799_ _00020_ _13086_ _13142_ VPWR VGND sg13g2_nor2_1
X_19800_ _13143_ \memory_i.i2c_master.state[5]\ _13130_ VPWR VGND sg13g2_nand2_1
X_19801_ _13144_ \memory_i.i2c_master.state[8]\ _13116_ _13126_ VPWR VGND sg13g2_nand3_1
X_19802_ _00019_ _13143_ _13144_ _13086_ VPWR VGND sg13g2_a21oi_1
X_19803_ _13145_ \memory_i.i2c_master.state[7]\ _13141_ \memory_i.i2c_master.state[4]\ VPWR VGND sg13g2_a21oi_1
X_19804_ _00018_ _13086_ _13145_ VPWR VGND sg13g2_nor2_1
X_19805_ _13146_ \memory_i.i2c_master.state[6]\ _13116_ _13127_ \memory_i.i2c_master.state[3]\ VPWR 
+ VGND
+ sg13g2_a22oi_1
X_19806_ _00017_ _13086_ _13146_ VPWR VGND sg13g2_nor2_1
X_19807_ _13147_ \memory_i.i2c_master.state[9]\ _13116_ VPWR VGND sg13g2_nand2_1
X_19808_ _13148_ \memory_i.i2c_master.state[2]\ _13130_ VPWR VGND sg13g2_nand2_1
X_19809_ _00016_ _13147_ _13148_ _13086_ VPWR VGND sg13g2_a21oi_1
X_19810_ _13149_ \memory_i.i2c_master.state[1]\ _13130_ VPWR VGND sg13g2_nand2_1
X_19811_ _13150_ \memory_i.i2c_master.state[10]\ _13116_ _13126_ VPWR VGND sg13g2_nand3_1
X_19812_ _00015_ _13149_ _13150_ _13086_ VPWR VGND sg13g2_a21oi_1
X_19813_ _13151_ _13139_ _13107_ \memory_i.i2c_master.state[0]\ VPWR VGND sg13g2_o21ai_1
X_19814_ _00013_ _13085_ _13151_ VPWR VGND sg13g2_nand2b_1
X_19815_ _13152_ \memory_i.freq_inst.transmit_state[3]\ \memory_i.freq_inst.transmit_state[1]\ VPWR VGND sg13g2_nor2_1
X_19816_ _13153_ \memory_i.freq_inst.transmit_counter[2]\ \memory_i.freq_inst.transmit_counter[1]\ \memory_i.freq_inst.transmit_counter[0]\ VPWR VGND sg13g2_nor3_1
X_19817_ _13154_ \memory_i.freq_inst.transmit_counter[3]\ _13153_ VPWR VGND sg13g2_nand2b_1
X_19818_ _13155_ _13154_ VPWR VGND sg13g2_buf_1
X_19819_ _13156_ \memory_i.freq_inst.transmit_counter[5]\ \memory_i.freq_inst.transmit_counter[4]\ _13155_ VPWR VGND sg13g2_nor3_1
X_19820_ _13157_ _13156_ VPWR VGND sg13g2_inv_1
X_19821_ _13158_ \memory_i.freq_inst.transmit_counter[7]\ \memory_i.freq_inst.transmit_counter[6]\ _13157_ VPWR VGND sg13g2_nor3_1
X_19822_ _13159_ _13152_ _13158_ VPWR VGND sg13g2_nor2_1
X_19823_ _13160_ \memory_i.freq_inst.transmit_state[1]\ _13159_ VPWR VGND sg13g2_nor2_1
X_19824_ _13161_ \memory_i.freq_inst.transmit_counter[7]\ \memory_i.freq_inst.transmit_counter[6]\ \memory_i.freq_inst.transmit_counter[5]\ VPWR VGND sg13g2_nor3_1
X_19825_ _13162_ \memory_i.freq_inst.transmit_state[3]\ _13161_ \memory_i.freq_inst.reset_n\ VPWR VGND sg13g2_o21ai_1
X_19826_ _00012_ _13160_ _13162_ VPWR VGND sg13g2_nor2_1
X_19827_ _13163_ \memory_i.freq_inst.cordic.shift_value[0]\ VPWR VGND sg13g2_inv_1
X_19828_ _13164_ _13163_ VPWR VGND sg13g2_buf_4
X_19829_ _13165_ _13164_ VPWR VGND sg13g2_buf_4
X_19830_ _13166_ _13165_ VPWR VGND sg13g2_buf_2
X_19831_ _13167_ _13166_ VPWR VGND sg13g2_buf_2
X_19832_ _13168_ _13167_ VPWR VGND sg13g2_buf_2
X_19833_ _13169_ \memory_i.freq_inst.cordic.shift_value[4]\ \memory_i.freq_inst.cordic.shift_value[3]\ VPWR VGND sg13g2_nand2_1
X_19834_ _13170_ _13169_ VPWR VGND sg13g2_buf_1
X_19835_ _13171_ _13170_ VPWR VGND sg13g2_inv_1
X_19836_ _13172_ \memory_i.freq_inst.cordic.shift_value[2]\ \memory_i.freq_inst.cordic.shift_value[1]\ VPWR VGND sg13g2_nand2_1
X_19837_ _13173_ _13172_ VPWR VGND sg13g2_inv_1
X_19838_ _13174_ _13168_ _13171_ _13173_ VPWR VGND sg13g2_nand3_1
X_19839_ _13175_ _13174_ VPWR VGND sg13g2_buf_1
X_19840_ _13176_ \memory_i.freq_inst.transmit_state[2]\ _13175_ VPWR VGND sg13g2_nand2_1
X_19841_ _13177_ _13176_ VPWR VGND sg13g2_buf_1
X_19842_ _13178_ \memory_i.freq_inst.start\ \memory_i.freq_inst.transmit_state[0]\ VPWR VGND sg13g2_nand2_1
X_19843_ _13179_ \memory_i.freq_inst.reset_n\ VPWR VGND sg13g2_inv_1
X_19844_ _13180_ _13179_ VPWR VGND sg13g2_buf_1
X_19845_ _00011_ _13177_ _13178_ _13180_ VPWR VGND sg13g2_a21oi_1
X_19846_ _13181_ _13171_ _13173_ VPWR VGND sg13g2_nand2_1
X_19847_ _13182_ \memory_i.freq_inst.cordic.shift_value[0]\ _13181_ VPWR VGND sg13g2_nor2_1
X_19848_ _13183_ _13182_ VPWR VGND sg13g2_buf_1
X_19849_ _13184_ _13183_ VPWR VGND sg13g2_buf_1
X_19850_ _13185_ _13161_ \memory_i.freq_inst.transmit_state[1]\ VPWR VGND sg13g2_nor2b_1
X_19851_ _13186_ \memory_i.freq_inst.transmit_state[3]\ _13158_ _13184_ \memory_i.freq_inst.transmit_state[2]\ _13185_ 
+ VPWR
+ VGND sg13g2_a221oi_1
X_19852_ _00010_ _13180_ _13186_ VPWR VGND sg13g2_nor2_1
X_19853_ _13187_ \memory_i.freq_inst.transmit_state[0]\ VPWR VGND sg13g2_inv_1
X_19854_ _00009_ \memory_i.freq_inst.start\ _13187_ \memory_i.freq_inst.reset_n\ VPWR VGND sg13g2_o21ai_1
X_19855_ _13188_ \control_i.state_q[2]\ VPWR VGND sg13g2_inv_1
X_19856_ _13189_ \alu_i.instruction[6]\ _13012_ VPWR VGND sg13g2_nor2b_1
X_19857_ _13190_ _13189_ VPWR VGND sg13g2_buf_1
X_19858_ _13191_ _13190_ VPWR VGND sg13g2_buf_1
X_19859_ _13192_ _13191_ VPWR VGND sg13g2_buf_1
X_19860_ _13193_ \alu_i.funct7[6]\ \alu_i.funct7[1]\ \alu_i.funct7[0]\ VPWR VGND sg13g2_nor3_1
X_19861_ _13194_ \alu_i.funct7[5]\ \alu_i.funct7[2]\ VPWR VGND sg13g2_nor2_1
X_19862_ _13195_ \alu_i.funct7[4]\ \alu_i.funct7[3]\ VPWR VGND sg13g2_nor2_1
X_19863_ _13196_ _13193_ _13194_ _13195_ VPWR VGND sg13g2_nand3_1
X_19864_ _13197_ \alu_i.instruction[4]\ VPWR VGND sg13g2_inv_1
X_19865_ _13198_ _13197_ \alu_i.instruction[2]\ _13011_ VPWR VGND sg13g2_nor3_1
X_19866_ _13199_ \alu_i.instruction[6]\ _13198_ VPWR VGND sg13g2_nand2b_1
X_19867_ _13200_ \alu_i.instruction[5]\ _13196_ _13199_ VPWR VGND sg13g2_a21oi_1
X_19868_ _13201_ _13200_ VPWR VGND sg13g2_buf_1
X_19869_ _13202_ _13201_ VPWR VGND sg13g2_inv_1
X_19870_ _13203_ \alu_i.funct3[1]\ VPWR VGND sg13g2_inv_1
X_19871_ _13204_ \alu_i.funct3[2]\ _13203_ VPWR VGND sg13g2_nor2_1
X_19872_ _13205_ _13203_ \alu_i.funct3[0]\ VPWR VGND sg13g2_nand2_1
X_19873_ _13206_ \alu_i.instruction[6]\ \alu_i.instruction[5]\ VPWR VGND sg13g2_nand2_1
X_19874_ _13207_ _13206_ VPWR VGND sg13g2_buf_2
X_19875_ _13208_ \alu_i.instruction[4]\ \alu_i.instruction[2]\ _13011_ _13207_ VPWR 
+ VGND
+ sg13g2_nor4_1
X_19876_ _13209_ _13208_ VPWR VGND sg13g2_buf_1
X_19877_ _13210_ _13205_ _13201_ _13209_ VPWR VGND sg13g2_a21oi_1
X_19878_ _13211_ _13202_ _13204_ _13210_ VPWR VGND sg13g2_a21oi_1
X_19879_ _13212_ \alu_i.funct3[0]\ VPWR VGND sg13g2_inv_1
X_19880_ _13213_ \alu_i.funct3[1]\ _13212_ VPWR VGND sg13g2_nor2_1
X_19881_ _13214_ _13199_ _13196_ VPWR VGND sg13g2_nor2_1
X_19882_ _13215_ \alu_i.funct3[2]\ _13213_ _13214_ VPWR VGND sg13g2_nand3_1
X_19883_ _13216_ _13215_ VPWR VGND sg13g2_buf_1
X_19884_ _13217_ \alu_i.funct7[2]\ _13195_ \alu_i.funct7[5]\ VPWR VGND sg13g2_nand3b_1
X_19885_ _13218_ _13199_ _13217_ VPWR VGND sg13g2_nor2_1
X_19886_ _13219_ \alu_i.funct3[2]\ _13213_ _13193_ _13218_ VPWR 
+ VGND
+ sg13g2_nand4_1
X_19887_ _13220_ _13219_ VPWR VGND sg13g2_buf_1
X_19888_ _13221_ _13216_ _13220_ VPWR VGND sg13g2_nand2_1
X_19889_ _13222_ _13207_ _13198_ VPWR VGND sg13g2_nor2b_1
X_19890_ _13223_ _13212_ _13204_ _13222_ VPWR VGND sg13g2_nand3_1
X_19891_ _13224_ _13223_ VPWR VGND sg13g2_buf_1
X_19892_ _13225_ \alu_i.instruction[1]\ \alu_i.instruction[0]\ VPWR VGND sg13g2_nand2_1
X_19893_ _13226_ \alu_i.instruction[4]\ \alu_i.instruction[2]\ VPWR VGND sg13g2_nand2b_1
X_19894_ _13227_ _13207_ _13226_ VPWR VGND sg13g2_or2_1
X_19895_ _13228_ _13227_ VPWR VGND sg13g2_buf_2
X_19896_ _13229_ _13225_ _13228_ VPWR VGND sg13g2_nor2_1
X_19897_ _13230_ _13229_ VPWR VGND sg13g2_buf_1
X_19898_ _13231_ \alu_i.instruction[4]\ \alu_i.instruction[2]\ VPWR VGND sg13g2_nand2_1
X_19899_ _13232_ \alu_i.instruction[6]\ _13011_ _13231_ VPWR VGND sg13g2_nor3_1
X_19900_ _13233_ _13232_ VPWR VGND sg13g2_buf_1
X_19901_ _13234_ \alu_i.funct3[2]\ _13205_ VPWR VGND sg13g2_nor2_1
X_19902_ _13235_ _13234_ VPWR VGND sg13g2_inv_1
X_19903_ _13236_ _13193_ VPWR VGND sg13g2_inv_1
X_19904_ _13237_ \alu_i.funct3[2]\ \alu_i.funct3[0]\ VPWR VGND sg13g2_or2_1
X_19905_ _13238_ \alu_i.funct3[1]\ _13236_ _13237_ VPWR VGND sg13g2_nor3_1
X_19906_ _13239_ \alu_i.funct7[4]\ \alu_i.funct7[3]\ _13194_ _13238_ VPWR 
+ VGND
+ sg13g2_nand4_1
X_19907_ _13240_ _13207_ _13198_ VPWR VGND sg13g2_nand2b_1
X_19908_ _13241_ _13235_ _13239_ _13240_ VPWR VGND sg13g2_a21oi_1
X_19909_ _13242_ _13189_ _13230_ _13233_ _13241_ VPWR 
+ VGND
+ sg13g2_nor4_1
X_19910_ _13243_ \alu_i.instruction[5]\ _13218_ _13238_ VPWR VGND sg13g2_nand3_1
X_19911_ _13244_ _13243_ VPWR VGND sg13g2_buf_1
X_19912_ _13245_ _13214_ _13234_ VPWR VGND sg13g2_nand2_1
X_19913_ _13246_ _13245_ VPWR VGND sg13g2_buf_1
X_19914_ _13247_ _13224_ _13242_ _13244_ _13246_ VPWR 
+ VGND
+ sg13g2_nand4_1
X_19915_ _13248_ _13211_ _13221_ _13247_ VPWR VGND sg13g2_nor3_1
X_19916_ _13249_ _13188_ _13192_ _13248_ VPWR VGND sg13g2_nor3_1
X_19917_ _13250_ \control_i.state_q[4]\ _12953_ _13249_ VPWR VGND sg13g2_a21oi_1
X_19918_ _00008_ _00002_ _13250_ VPWR VGND sg13g2_nor2_1
X_19919_ _13251_ \control_i.load_access_fault\ \control_i.state_q[6]\ VPWR VGND sg13g2_nor2b_1
X_19920_ _13252_ \control_i.state_q[2]\ _13192_ _13251_ _12953_ VPWR 
+ VGND
+ sg13g2_a22oi_1
X_19921_ _00007_ _00002_ _13252_ VPWR VGND sg13g2_nor2_1
X_19922_ _13253_ \control_i.pcflag\ VPWR VGND sg13g2_inv_1
X_19923_ _13254_ _13253_ VPWR VGND sg13g2_buf_1
X_19924_ _13255_ _13254_ VPWR VGND sg13g2_buf_1
X_19925_ _13256_ \csr_i.mie[16]\ \csr_i.mstatus[3]\ \csr_i.mip[16]\ VPWR VGND sg13g2_nand3_1
X_19926_ _13257_ _13256_ VPWR VGND sg13g2_buf_1
X_19927_ _13258_ \csr_i.mie[11]\ \csr_i.mip[11]\ \csr_i.mip[7]\ \csr_i.mie[7]\ VPWR 
+ VGND
+ sg13g2_a22oi_1
X_19928_ _13259_ _13258_ \csr_i.mstatus[3]\ VPWR VGND sg13g2_nor2b_1
X_19929_ _13260_ _13259_ VPWR VGND sg13g2_inv_1
X_19930_ _13261_ _13257_ _13260_ VPWR VGND sg13g2_nand2_1
X_19931_ _13262_ _13255_ _13261_ VPWR VGND sg13g2_nor2_1
X_19932_ _13263_ \csr_i.pc[1]\ \csr_i.pc[0]\ \control_i.load_access_fault\ VPWR VGND sg13g2_nor3_1
X_19933_ _13264_ \control_i.state_q[5]\ _12953_ _13263_ VPWR VGND sg13g2_and3_1
X_19934_ _13265_ \control_i.jump_to_isr\ \control_i.state_q[0]\ _13262_ _13264_ VPWR 
+ VGND
+ sg13g2_nor4_1
X_19935_ _00006_ _00002_ _13265_ VPWR VGND sg13g2_nor2_1
X_19936_ _13266_ _12953_ reset VPWR VGND sg13g2_nand2b_1
X_19937_ _13267_ \control_i.state_q[4]\ _13251_ VPWR VGND sg13g2_nor2_1
X_19938_ _00005_ _13266_ _13267_ VPWR VGND sg13g2_nor2_1
X_19939_ _13268_ \control_i.state_q[5]\ _13263_ \control_i.state_q[3]\ VPWR VGND sg13g2_a21oi_1
X_19940_ _00004_ _13266_ _13268_ VPWR VGND sg13g2_nor2_1
X_19941_ _13269_ \control_i.state_q[6]\ \control_i.load_access_fault\ \control_i.state_q[5]\ VPWR VGND sg13g2_a21oi_1
X_19942_ _13270_ _13263_ _13269_ VPWR VGND sg13g2_nor2_1
X_19943_ _13271_ \control_i.state_q[2]\ _13248_ _13261_ \control_i.pcflag\ _13270_ 
+ VPWR
+ VGND sg13g2_a221oi_1
X_19944_ _00003_ _00002_ _13271_ VPWR VGND sg13g2_nor2_1
X_19945_ _13272_ \memory_i.uart_receiver.cycle_counter[1]\ \memory_i.uart_receiver.CYCLES_PER_BIT[1]\ VPWR VGND sg13g2_xor2_1
X_19946_ _13273_ \memory_i.uart_receiver.cycle_counter[0]\ \memory_i.uart_receiver.CYCLES_PER_BIT[0]\ VPWR VGND sg13g2_xor2_1
X_19947_ _13274_ \memory_i.uart_receiver.cycle_counter[5]\ \memory_i.uart_receiver.CYCLES_PER_BIT[5]\ VPWR VGND sg13g2_xor2_1
X_19948_ _13275_ \memory_i.uart_receiver.cycle_counter[2]\ \memory_i.uart_receiver.CYCLES_PER_BIT[2]\ VPWR VGND sg13g2_xor2_1
X_19949_ _13276_ _13272_ _13273_ _13274_ _13275_ VPWR 
+ VGND
+ sg13g2_nor4_1
X_19950_ _13277_ \memory_i.uart_receiver.cycle_counter[9]\ \memory_i.uart_receiver.CYCLES_PER_BIT[9]\ VPWR VGND sg13g2_xor2_1
X_19951_ _13278_ \memory_i.uart_receiver.cycle_counter[10]\ \memory_i.uart_receiver.CYCLES_PER_BIT[10]\ VPWR VGND sg13g2_xor2_1
X_19952_ _13279_ \memory_i.uart_receiver.cycle_counter[8]\ \memory_i.uart_receiver.CYCLES_PER_BIT[8]\ VPWR VGND sg13g2_xor2_1
X_19953_ _13280_ \memory_i.uart_receiver.cycle_counter[12]\ \memory_i.uart_receiver.CYCLES_PER_BIT[12]\ VPWR VGND sg13g2_xor2_1
X_19954_ _13281_ _13277_ _13278_ _13279_ _13280_ VPWR 
+ VGND
+ sg13g2_nor4_1
X_19955_ _13282_ \memory_i.uart_receiver.cycle_counter[7]\ \memory_i.uart_receiver.CYCLES_PER_BIT[7]\ VPWR VGND sg13g2_xor2_1
X_19956_ _13283_ \memory_i.uart_receiver.cycle_counter[13]\ \memory_i.uart_receiver.CYCLES_PER_BIT[13]\ VPWR VGND sg13g2_xor2_1
X_19957_ _13284_ \memory_i.uart_receiver.cycle_counter[3]\ \memory_i.uart_receiver.CYCLES_PER_BIT[3]\ VPWR VGND sg13g2_xor2_1
X_19958_ _13285_ _13282_ _13283_ _13284_ VPWR VGND sg13g2_nor3_1
X_19959_ _13286_ \memory_i.uart_receiver.cycle_counter[6]\ \memory_i.uart_receiver.CYCLES_PER_BIT[6]\ VPWR VGND sg13g2_xor2_1