*SPEF "ieee 1481-1999"
*DESIGN "counter_top"
*DATE "21:39:02 Monday May 18, 2026"
*VENDOR "The OpenROAD Project"
*PROGRAM "OpenROAD"
*VERSION "26Q1-1024-gdcf36133a"
*DESIGN_FLOW "NAME_SCOPE LOCAL" "PIN_CAP NONE"
*DIVIDER /
*DELIMITER :
*BUS_DELIMITER []
*T_UNIT 1 NS
*C_UNIT 1 PF
*R_UNIT 1 OHM
*L_UNIT 1 HENRY

*NAME_MAP
*3 clock_i
*4 counter_value_o[0]
*5 counter_value_o[1]
*6 counter_value_o[2]
*7 counter_value_o[3]
*8 counter_value_o[4]
*9 counter_value_o[5]
*10 counter_value_o[6]
*11 counter_value_o[7]
*12 enable_i
*13 reset_n_i
*14 _00_
*15 _01_
*16 _02_
*17 _03_
*18 _04_
*19 _05_
*20 _06_
*21 _07_
*22 _08_
*23 _09_
*24 _10_
*25 _11_
*26 _12_
*27 _13_
*28 _14_
*29 _15_
*30 _16_
*31 _17_
*32 _18_
*33 _19_
*34 _20_
*35 _21_
*36 _22_
*37 _23_
*38 _24_
*39 _25_
*40 _26_
*41 _27_
*42 _28_
*43 _29_
*44 _30_
*45 clknet_0_clock_i
*46 clknet_1_0__leaf_clock_i
*47 clknet_1_1__leaf_clock_i
*48 net
*49 net1
*50 net10
*51 net11
*52 net12
*53 net13
*54 net14
*55 net15
*56 net16
*57 net17
*58 net18
*59 net19
*60 net2
*61 net20
*62 net21
*63 net22
*64 net23
*65 net24
*66 net25
*67 net26
*68 net27
*69 net28
*70 net29
*71 net3
*72 net30
*73 net31
*74 net32
*75 net33
*76 net4
*77 net5
*78 net6
*79 net7
*80 net8
*81 net9
*82 FILLER_0_0
*83 FILLER_0_105
*84 FILLER_0_112
*85 FILLER_0_119
*86 FILLER_0_126
*87 FILLER_0_133
*88 FILLER_0_14
*89 FILLER_0_140
*90 FILLER_0_147
*91 FILLER_0_154
*92 FILLER_0_161
*93 FILLER_0_168
*94 FILLER_0_175
*95 FILLER_0_182
*96 FILLER_0_189
*97 FILLER_0_196
*98 FILLER_0_203
*99 FILLER_0_21
*100 FILLER_0_210
*101 FILLER_0_217
*102 FILLER_0_224
*103 FILLER_0_231
*104 FILLER_0_238
*105 FILLER_0_245
*106 FILLER_0_252
*107 FILLER_0_259
*108 FILLER_0_266
*109 FILLER_0_273
*110 FILLER_0_28
*111 FILLER_0_280
*112 FILLER_0_287
*113 FILLER_0_294
*114 FILLER_0_301
*115 FILLER_0_308
*116 FILLER_0_315
*117 FILLER_0_322
*118 FILLER_0_329
*119 FILLER_0_336
*120 FILLER_0_343
*121 FILLER_0_35
*122 FILLER_0_350
*123 FILLER_0_357
*124 FILLER_0_364
*125 FILLER_0_371
*126 FILLER_0_378
*127 FILLER_0_385
*128 FILLER_0_42
*129 FILLER_0_49
*130 FILLER_0_56
*131 FILLER_0_63
*132 FILLER_0_7
*133 FILLER_0_70
*134 FILLER_0_77
*135 FILLER_0_84
*136 FILLER_0_91
*137 FILLER_0_98
*138 FILLER_10_0
*139 FILLER_10_105
*140 FILLER_10_112
*141 FILLER_10_119
*142 FILLER_10_126
*143 FILLER_10_133
*144 FILLER_10_14
*145 FILLER_10_140
*146 FILLER_10_147
*147 FILLER_10_154
*148 FILLER_10_161
*149 FILLER_10_168
*150 FILLER_10_175
*151 FILLER_10_182
*152 FILLER_10_189
*153 FILLER_10_196
*154 FILLER_10_203
*155 FILLER_10_21
*156 FILLER_10_210
*157 FILLER_10_217
*158 FILLER_10_224
*159 FILLER_10_231
*160 FILLER_10_238
*161 FILLER_10_245
*162 FILLER_10_252
*163 FILLER_10_259
*164 FILLER_10_266
*165 FILLER_10_273
*166 FILLER_10_28
*167 FILLER_10_280
*168 FILLER_10_287
*169 FILLER_10_294
*170 FILLER_10_301
*171 FILLER_10_308
*172 FILLER_10_315
*173 FILLER_10_322
*174 FILLER_10_329
*175 FILLER_10_336
*176 FILLER_10_343
*177 FILLER_10_35
*178 FILLER_10_350
*179 FILLER_10_357
*180 FILLER_10_364
*181 FILLER_10_371
*182 FILLER_10_378
*183 FILLER_10_385
*184 FILLER_10_42
*185 FILLER_10_49
*186 FILLER_10_56
*187 FILLER_10_63
*188 FILLER_10_7
*189 FILLER_10_70
*190 FILLER_10_77
*191 FILLER_10_84
*192 FILLER_10_91
*193 FILLER_10_98
*194 FILLER_11_0
*195 FILLER_11_105
*196 FILLER_11_112
*197 FILLER_11_119
*198 FILLER_11_126
*199 FILLER_11_133
*200 FILLER_11_14
*201 FILLER_11_140
*202 FILLER_11_147
*203 FILLER_11_154
*204 FILLER_11_161
*205 FILLER_11_168
*206 FILLER_11_175
*207 FILLER_11_182
*208 FILLER_11_189
*209 FILLER_11_196
*210 FILLER_11_203
*211 FILLER_11_21
*212 FILLER_11_210
*213 FILLER_11_217
*214 FILLER_11_224
*215 FILLER_11_231
*216 FILLER_11_238
*217 FILLER_11_245
*218 FILLER_11_252
*219 FILLER_11_259
*220 FILLER_11_266
*221 FILLER_11_273
*222 FILLER_11_28
*223 FILLER_11_280
*224 FILLER_11_287
*225 FILLER_11_294
*226 FILLER_11_301
*227 FILLER_11_308
*228 FILLER_11_315
*229 FILLER_11_322
*230 FILLER_11_329
*231 FILLER_11_336
*232 FILLER_11_343
*233 FILLER_11_35
*234 FILLER_11_350
*235 FILLER_11_357
*236 FILLER_11_364
*237 FILLER_11_371
*238 FILLER_11_378
*239 FILLER_11_385
*240 FILLER_11_42
*241 FILLER_11_49
*242 FILLER_11_56
*243 FILLER_11_63
*244 FILLER_11_7
*245 FILLER_11_70
*246 FILLER_11_77
*247 FILLER_11_84
*248 FILLER_11_91
*249 FILLER_11_98
*250 FILLER_12_0
*251 FILLER_12_105
*252 FILLER_12_112
*253 FILLER_12_119
*254 FILLER_12_126
*255 FILLER_12_133
*256 FILLER_12_14
*257 FILLER_12_140
*258 FILLER_12_147
*259 FILLER_12_154
*260 FILLER_12_161
*261 FILLER_12_168
*262 FILLER_12_175
*263 FILLER_12_182
*264 FILLER_12_189
*265 FILLER_12_196
*266 FILLER_12_203
*267 FILLER_12_21
*268 FILLER_12_210
*269 FILLER_12_217
*270 FILLER_12_224
*271 FILLER_12_231
*272 FILLER_12_238
*273 FILLER_12_245
*274 FILLER_12_252
*275 FILLER_12_259
*276 FILLER_12_266
*277 FILLER_12_273
*278 FILLER_12_28
*279 FILLER_12_280
*280 FILLER_12_287
*281 FILLER_12_294
*282 FILLER_12_301
*283 FILLER_12_308
*284 FILLER_12_315
*285 FILLER_12_322
*286 FILLER_12_329
*287 FILLER_12_336
*288 FILLER_12_343
*289 FILLER_12_35
*290 FILLER_12_350
*291 FILLER_12_357
*292 FILLER_12_364
*293 FILLER_12_371
*294 FILLER_12_378
*295 FILLER_12_385
*296 FILLER_12_42
*297 FILLER_12_49
*298 FILLER_12_56
*299 FILLER_12_63
*300 FILLER_12_7
*301 FILLER_12_70
*302 FILLER_12_77
*303 FILLER_12_84
*304 FILLER_12_91
*305 FILLER_12_98
*306 FILLER_13_0
*307 FILLER_13_105
*308 FILLER_13_112
*309 FILLER_13_119
*310 FILLER_13_126
*311 FILLER_13_133
*312 FILLER_13_14
*313 FILLER_13_140
*314 FILLER_13_147
*315 FILLER_13_154
*316 FILLER_13_161
*317 FILLER_13_170
*318 FILLER_13_185
*319 FILLER_13_195
*320 FILLER_13_202
*321 FILLER_13_209
*322 FILLER_13_21
*323 FILLER_13_216
*324 FILLER_13_223
*325 FILLER_13_230
*326 FILLER_13_237
*327 FILLER_13_244
*328 FILLER_13_251
*329 FILLER_13_258
*330 FILLER_13_265
*331 FILLER_13_272
*332 FILLER_13_279
*333 FILLER_13_28
*334 FILLER_13_286
*335 FILLER_13_293
*336 FILLER_13_300
*337 FILLER_13_307
*338 FILLER_13_314
*339 FILLER_13_321
*340 FILLER_13_328
*341 FILLER_13_335
*342 FILLER_13_342
*343 FILLER_13_349
*344 FILLER_13_35
*345 FILLER_13_356
*346 FILLER_13_363
*347 FILLER_13_370
*348 FILLER_13_377
*349 FILLER_13_384
*350 FILLER_13_391
*351 FILLER_13_42
*352 FILLER_13_49
*353 FILLER_13_56
*354 FILLER_13_63
*355 FILLER_13_7
*356 FILLER_13_70
*357 FILLER_13_77
*358 FILLER_13_84
*359 FILLER_13_91
*360 FILLER_13_98
*361 FILLER_14_0
*362 FILLER_14_103
*363 FILLER_14_110
*364 FILLER_14_117
*365 FILLER_14_124
*366 FILLER_14_128
*367 FILLER_14_137
*368 FILLER_14_14
*369 FILLER_14_144
*370 FILLER_14_154
*371 FILLER_14_204
*372 FILLER_14_21
*373 FILLER_14_211
*374 FILLER_14_218
*375 FILLER_14_230
*376 FILLER_14_232
*377 FILLER_14_238
*378 FILLER_14_240
*379 FILLER_14_246
*380 FILLER_14_253
*381 FILLER_14_257
*382 FILLER_14_276
*383 FILLER_14_28
*384 FILLER_14_283
*385 FILLER_14_290
*386 FILLER_14_297
*387 FILLER_14_304
*388 FILLER_14_311
*389 FILLER_14_318
*390 FILLER_14_325
*391 FILLER_14_332
*392 FILLER_14_339
*393 FILLER_14_346
*394 FILLER_14_35
*395 FILLER_14_353
*396 FILLER_14_360
*397 FILLER_14_367
*398 FILLER_14_374
*399 FILLER_14_381
*400 FILLER_14_388
*401 FILLER_14_42
*402 FILLER_14_49
*403 FILLER_14_56
*404 FILLER_14_60
*405 FILLER_14_69
*406 FILLER_14_7
*407 FILLER_14_76
*408 FILLER_14_83
*409 FILLER_14_92
*410 FILLER_14_96
*411 FILLER_15_0
*412 FILLER_15_14
*413 FILLER_15_179
*414 FILLER_15_207
*415 FILLER_15_21
*416 FILLER_15_214
*417 FILLER_15_231
*418 FILLER_15_279
*419 FILLER_15_286
*420 FILLER_15_29
*421 FILLER_15_293
*422 FILLER_15_300
*423 FILLER_15_307
*424 FILLER_15_314
*425 FILLER_15_321
*426 FILLER_15_328
*427 FILLER_15_335
*428 FILLER_15_342
*429 FILLER_15_349
*430 FILLER_15_356
*431 FILLER_15_363
*432 FILLER_15_370
*433 FILLER_15_377
*434 FILLER_15_384
*435 FILLER_15_391
*436 FILLER_15_40
*437 FILLER_15_47
*438 FILLER_15_54
*439 FILLER_15_7
*440 FILLER_15_73
*441 FILLER_15_75
*442 FILLER_15_85
*443 FILLER_16_0
*444 FILLER_16_100
*445 FILLER_16_11
*446 FILLER_16_140
*447 FILLER_16_147
*448 FILLER_16_216
*449 FILLER_16_223
*450 FILLER_16_230
*451 FILLER_16_232
*452 FILLER_16_238
*453 FILLER_16_240
*454 FILLER_16_282
*455 FILLER_16_289
*456 FILLER_16_296
*457 FILLER_16_303
*458 FILLER_16_310
*459 FILLER_16_317
*460 FILLER_16_324
*461 FILLER_16_331
*462 FILLER_16_338
*463 FILLER_16_345
*464 FILLER_16_352
*465 FILLER_16_359
*466 FILLER_16_366
*467 FILLER_16_373
*468 FILLER_16_380
*469 FILLER_16_387
*470 FILLER_16_391
*471 FILLER_16_47
*472 FILLER_16_54
*473 FILLER_16_58
*474 FILLER_16_7
*475 FILLER_16_93
*476 FILLER_17_0
*477 FILLER_17_101
*478 FILLER_17_108
*479 FILLER_17_11
*480 FILLER_17_115
*481 FILLER_17_121
*482 FILLER_17_123
*483 FILLER_17_141
*484 FILLER_17_148
*485 FILLER_17_155
*486 FILLER_17_162
*487 FILLER_17_166
*488 FILLER_17_17
*489 FILLER_17_178
*490 FILLER_17_180
*491 FILLER_17_189
*492 FILLER_17_196
*493 FILLER_17_203
*494 FILLER_17_210
*495 FILLER_17_217
*496 FILLER_17_225
*497 FILLER_17_232
*498 FILLER_17_239
*499 FILLER_17_24
*500 FILLER_17_246
*501 FILLER_17_267
*502 FILLER_17_271
*503 FILLER_17_277
*504 FILLER_17_284
*505 FILLER_17_291
*506 FILLER_17_298
*507 FILLER_17_305
*508 FILLER_17_31
*509 FILLER_17_312
*510 FILLER_17_319
*511 FILLER_17_323
*512 FILLER_17_329
*513 FILLER_17_336
*514 FILLER_17_343
*515 FILLER_17_350
*516 FILLER_17_357
*517 FILLER_17_364
*518 FILLER_17_371
*519 FILLER_17_375
*520 FILLER_17_38
*521 FILLER_17_381
*522 FILLER_17_388
*523 FILLER_17_45
*524 FILLER_17_52
*525 FILLER_17_59
*526 FILLER_17_69
*527 FILLER_17_7
*528 FILLER_17_76
*529 FILLER_17_80
*530 FILLER_17_87
*531 FILLER_17_94
*532 FILLER_1_102
*533 FILLER_1_109
*534 FILLER_1_11
*535 FILLER_1_116
*536 FILLER_1_123
*537 FILLER_1_130
*538 FILLER_1_137
*539 FILLER_1_144
*540 FILLER_1_151
*541 FILLER_1_158
*542 FILLER_1_165
*543 FILLER_1_172
*544 FILLER_1_179
*545 FILLER_1_18
*546 FILLER_1_186
*547 FILLER_1_193
*548 FILLER_1_200
*549 FILLER_1_207
*550 FILLER_1_214
*551 FILLER_1_221
*552 FILLER_1_228
*553 FILLER_1_235
*554 FILLER_1_242
*555 FILLER_1_249
*556 FILLER_1_25
*557 FILLER_1_256
*558 FILLER_1_263
*559 FILLER_1_270
*560 FILLER_1_277
*561 FILLER_1_284
*562 FILLER_1_291
*563 FILLER_1_298
*564 FILLER_1_305
*565 FILLER_1_312
*566 FILLER_1_319
*567 FILLER_1_32
*568 FILLER_1_326
*569 FILLER_1_333
*570 FILLER_1_340
*571 FILLER_1_347
*572 FILLER_1_354
*573 FILLER_1_361
*574 FILLER_1_368
*575 FILLER_1_375
*576 FILLER_1_382
*577 FILLER_1_389
*578 FILLER_1_39
*579 FILLER_1_391
*580 FILLER_1_4
*581 FILLER_1_46
*582 FILLER_1_53
*583 FILLER_1_60
*584 FILLER_1_67
*585 FILLER_1_74
*586 FILLER_1_81
*587 FILLER_1_88
*588 FILLER_1_95
*589 FILLER_2_0
*590 FILLER_2_105
*591 FILLER_2_112
*592 FILLER_2_119
*593 FILLER_2_126
*594 FILLER_2_133
*595 FILLER_2_14
*596 FILLER_2_140
*597 FILLER_2_147
*598 FILLER_2_154
*599 FILLER_2_161
*600 FILLER_2_168
*601 FILLER_2_175
*602 FILLER_2_182
*603 FILLER_2_189
*604 FILLER_2_196
*605 FILLER_2_203
*606 FILLER_2_21
*607 FILLER_2_210
*608 FILLER_2_217
*609 FILLER_2_224
*610 FILLER_2_231
*611 FILLER_2_238
*612 FILLER_2_245
*613 FILLER_2_252
*614 FILLER_2_259
*615 FILLER_2_266
*616 FILLER_2_273
*617 FILLER_2_28
*618 FILLER_2_280
*619 FILLER_2_287
*620 FILLER_2_294
*621 FILLER_2_301
*622 FILLER_2_308
*623 FILLER_2_315
*624 FILLER_2_322
*625 FILLER_2_329
*626 FILLER_2_336
*627 FILLER_2_343
*628 FILLER_2_35
*629 FILLER_2_350
*630 FILLER_2_357
*631 FILLER_2_364
*632 FILLER_2_371
*633 FILLER_2_378
*634 FILLER_2_385
*635 FILLER_2_42
*636 FILLER_2_49
*637 FILLER_2_56
*638 FILLER_2_63
*639 FILLER_2_7
*640 FILLER_2_70
*641 FILLER_2_77
*642 FILLER_2_84
*643 FILLER_2_91
*644 FILLER_2_98
*645 FILLER_3_0
*646 FILLER_3_105
*647 FILLER_3_112
*648 FILLER_3_119
*649 FILLER_3_126
*650 FILLER_3_133
*651 FILLER_3_14
*652 FILLER_3_140
*653 FILLER_3_147
*654 FILLER_3_154
*655 FILLER_3_161
*656 FILLER_3_168
*657 FILLER_3_175
*658 FILLER_3_182
*659 FILLER_3_189
*660 FILLER_3_196
*661 FILLER_3_203
*662 FILLER_3_21
*663 FILLER_3_210
*664 FILLER_3_217
*665 FILLER_3_224
*666 FILLER_3_231
*667 FILLER_3_238
*668 FILLER_3_245
*669 FILLER_3_252
*670 FILLER_3_259
*671 FILLER_3_266
*672 FILLER_3_273
*673 FILLER_3_28
*674 FILLER_3_280
*675 FILLER_3_287
*676 FILLER_3_294
*677 FILLER_3_301
*678 FILLER_3_308
*679 FILLER_3_315
*680 FILLER_3_322
*681 FILLER_3_329
*682 FILLER_3_336
*683 FILLER_3_343
*684 FILLER_3_35
*685 FILLER_3_350
*686 FILLER_3_357
*687 FILLER_3_364
*688 FILLER_3_371
*689 FILLER_3_378
*690 FILLER_3_385
*691 FILLER_3_42
*692 FILLER_3_49
*693 FILLER_3_56
*694 FILLER_3_63
*695 FILLER_3_7
*696 FILLER_3_70
*697 FILLER_3_77
*698 FILLER_3_84
*699 FILLER_3_91
*700 FILLER_3_98
*701 FILLER_4_0
*702 FILLER_4_105
*703 FILLER_4_112
*704 FILLER_4_119
*705 FILLER_4_126
*706 FILLER_4_133
*707 FILLER_4_14
*708 FILLER_4_140
*709 FILLER_4_147
*710 FILLER_4_154
*711 FILLER_4_161
*712 FILLER_4_168
*713 FILLER_4_175
*714 FILLER_4_182
*715 FILLER_4_189
*716 FILLER_4_196
*717 FILLER_4_203
*718 FILLER_4_21
*719 FILLER_4_210
*720 FILLER_4_217
*721 FILLER_4_224
*722 FILLER_4_231
*723 FILLER_4_238
*724 FILLER_4_245
*725 FILLER_4_252
*726 FILLER_4_259
*727 FILLER_4_266
*728 FILLER_4_273
*729 FILLER_4_28
*730 FILLER_4_280
*731 FILLER_4_287
*732 FILLER_4_294
*733 FILLER_4_301
*734 FILLER_4_308
*735 FILLER_4_315
*736 FILLER_4_322
*737 FILLER_4_329
*738 FILLER_4_336
*739 FILLER_4_343
*740 FILLER_4_35
*741 FILLER_4_350
*742 FILLER_4_357
*743 FILLER_4_364
*744 FILLER_4_371
*745 FILLER_4_378
*746 FILLER_4_385
*747 FILLER_4_42
*748 FILLER_4_49
*749 FILLER_4_56
*750 FILLER_4_63
*751 FILLER_4_7
*752 FILLER_4_70
*753 FILLER_4_77
*754 FILLER_4_84
*755 FILLER_4_91
*756 FILLER_4_98
*757 FILLER_5_0
*758 FILLER_5_105
*759 FILLER_5_112
*760 FILLER_5_119
*761 FILLER_5_126
*762 FILLER_5_133
*763 FILLER_5_14
*764 FILLER_5_140
*765 FILLER_5_147
*766 FILLER_5_154
*767 FILLER_5_161
*768 FILLER_5_168
*769 FILLER_5_175
*770 FILLER_5_182
*771 FILLER_5_189
*772 FILLER_5_196
*773 FILLER_5_203
*774 FILLER_5_21
*775 FILLER_5_210
*776 FILLER_5_217
*777 FILLER_5_224
*778 FILLER_5_231
*779 FILLER_5_238
*780 FILLER_5_245
*781 FILLER_5_252
*782 FILLER_5_259
*783 FILLER_5_266
*784 FILLER_5_273
*785 FILLER_5_28
*786 FILLER_5_280
*787 FILLER_5_287
*788 FILLER_5_294
*789 FILLER_5_301
*790 FILLER_5_308
*791 FILLER_5_315
*792 FILLER_5_322
*793 FILLER_5_329
*794 FILLER_5_336
*795 FILLER_5_343
*796 FILLER_5_35
*797 FILLER_5_350
*798 FILLER_5_357
*799 FILLER_5_364
*800 FILLER_5_371
*801 FILLER_5_378
*802 FILLER_5_385
*803 FILLER_5_42
*804 FILLER_5_49
*805 FILLER_5_56
*806 FILLER_5_63
*807 FILLER_5_7
*808 FILLER_5_70
*809 FILLER_5_77
*810 FILLER_5_84
*811 FILLER_5_91
*812 FILLER_5_98
*813 FILLER_6_0
*814 FILLER_6_105
*815 FILLER_6_112
*816 FILLER_6_119
*817 FILLER_6_126
*818 FILLER_6_133
*819 FILLER_6_14
*820 FILLER_6_140
*821 FILLER_6_147
*822 FILLER_6_154
*823 FILLER_6_161
*824 FILLER_6_168
*825 FILLER_6_175
*826 FILLER_6_182
*827 FILLER_6_189
*828 FILLER_6_196
*829 FILLER_6_203
*830 FILLER_6_21
*831 FILLER_6_210
*832 FILLER_6_217
*833 FILLER_6_224
*834 FILLER_6_231
*835 FILLER_6_238
*836 FILLER_6_245
*837 FILLER_6_252
*838 FILLER_6_259
*839 FILLER_6_266
*840 FILLER_6_273
*841 FILLER_6_28
*842 FILLER_6_280
*843 FILLER_6_287
*844 FILLER_6_294
*845 FILLER_6_301
*846 FILLER_6_308
*847 FILLER_6_315
*848 FILLER_6_322
*849 FILLER_6_329
*850 FILLER_6_336
*851 FILLER_6_343
*852 FILLER_6_35
*853 FILLER_6_350
*854 FILLER_6_357
*855 FILLER_6_364
*856 FILLER_6_371
*857 FILLER_6_378
*858 FILLER_6_385
*859 FILLER_6_42
*860 FILLER_6_49
*861 FILLER_6_56
*862 FILLER_6_63
*863 FILLER_6_7
*864 FILLER_6_70
*865 FILLER_6_77
*866 FILLER_6_84
*867 FILLER_6_91
*868 FILLER_6_98
*869 FILLER_7_0
*870 FILLER_7_105
*871 FILLER_7_112
*872 FILLER_7_119
*873 FILLER_7_126
*874 FILLER_7_133
*875 FILLER_7_14
*876 FILLER_7_140
*877 FILLER_7_147
*878 FILLER_7_154
*879 FILLER_7_161
*880 FILLER_7_168
*881 FILLER_7_175
*882 FILLER_7_182
*883 FILLER_7_189
*884 FILLER_7_196
*885 FILLER_7_203
*886 FILLER_7_21
*887 FILLER_7_210
*888 FILLER_7_217
*889 FILLER_7_224
*890 FILLER_7_231
*891 FILLER_7_238
*892 FILLER_7_245
*893 FILLER_7_252
*894 FILLER_7_259
*895 FILLER_7_266
*896 FILLER_7_273
*897 FILLER_7_28
*898 FILLER_7_280
*899 FILLER_7_287
*900 FILLER_7_294
*901 FILLER_7_301
*902 FILLER_7_308
*903 FILLER_7_315
*904 FILLER_7_322
*905 FILLER_7_329
*906 FILLER_7_336
*907 FILLER_7_343
*908 FILLER_7_35
*909 FILLER_7_350
*910 FILLER_7_357
*911 FILLER_7_364
*912 FILLER_7_371
*913 FILLER_7_378
*914 FILLER_7_385
*915 FILLER_7_42
*916 FILLER_7_49
*917 FILLER_7_56
*918 FILLER_7_63
*919 FILLER_7_7
*920 FILLER_7_70
*921 FILLER_7_77
*922 FILLER_7_84
*923 FILLER_7_91
*924 FILLER_7_98
*925 FILLER_8_0
*926 FILLER_8_105
*927 FILLER_8_112
*928 FILLER_8_119
*929 FILLER_8_126
*930 FILLER_8_133
*931 FILLER_8_14
*932 FILLER_8_140
*933 FILLER_8_147
*934 FILLER_8_154
*935 FILLER_8_161
*936 FILLER_8_168
*937 FILLER_8_175
*938 FILLER_8_182
*939 FILLER_8_189
*940 FILLER_8_196
*941 FILLER_8_203
*942 FILLER_8_21
*943 FILLER_8_210
*944 FILLER_8_217
*945 FILLER_8_224
*946 FILLER_8_231
*947 FILLER_8_238
*948 FILLER_8_245
*949 FILLER_8_252
*950 FILLER_8_259
*951 FILLER_8_266
*952 FILLER_8_273
*953 FILLER_8_28
*954 FILLER_8_280
*955 FILLER_8_287
*956 FILLER_8_294
*957 FILLER_8_301
*958 FILLER_8_308
*959 FILLER_8_315
*960 FILLER_8_322
*961 FILLER_8_329
*962 FILLER_8_336
*963 FILLER_8_343
*964 FILLER_8_35
*965 FILLER_8_350
*966 FILLER_8_357
*967 FILLER_8_364
*968 FILLER_8_371
*969 FILLER_8_378
*970 FILLER_8_385
*971 FILLER_8_42
*972 FILLER_8_49
*973 FILLER_8_56
*974 FILLER_8_63
*975 FILLER_8_7
*976 FILLER_8_70
*977 FILLER_8_77
*978 FILLER_8_84
*979 FILLER_8_91
*980 FILLER_8_98
*981 FILLER_9_102
*982 FILLER_9_109
*983 FILLER_9_11
*984 FILLER_9_116
*985 FILLER_9_123
*986 FILLER_9_130
*987 FILLER_9_137
*988 FILLER_9_144
*989 FILLER_9_151
*990 FILLER_9_158
*991 FILLER_9_165
*992 FILLER_9_172
*993 FILLER_9_179
*994 FILLER_9_18
*995 FILLER_9_186
*996 FILLER_9_193
*997 FILLER_9_200
*998 FILLER_9_207
*999 FILLER_9_214
*1000 FILLER_9_221
*1001 FILLER_9_228
*1002 FILLER_9_235
*1003 FILLER_9_242
*1004 FILLER_9_249
*1005 FILLER_9_25
*1006 FILLER_9_256
*1007 FILLER_9_263
*1008 FILLER_9_270
*1009 FILLER_9_277
*1010 FILLER_9_284
*1011 FILLER_9_291
*1012 FILLER_9_298
*1013 FILLER_9_305
*1014 FILLER_9_312
*1015 FILLER_9_319
*1016 FILLER_9_32
*1017 FILLER_9_326
*1018 FILLER_9_333
*1019 FILLER_9_340
*1020 FILLER_9_347
*1021 FILLER_9_354
*1022 FILLER_9_361
*1023 FILLER_9_368
*1024 FILLER_9_375
*1025 FILLER_9_382
*1026 FILLER_9_389
*1027 FILLER_9_39
*1028 FILLER_9_391
*1029 FILLER_9_4
*1030 FILLER_9_46
*1031 FILLER_9_53
*1032 FILLER_9_60
*1033 FILLER_9_67
*1034 FILLER_9_74
*1035 FILLER_9_81
*1036 FILLER_9_88
*1037 FILLER_9_95
*1038 _39_
*1039 _40_
*1040 _41_
*1041 _42_
*1042 _43_
*1043 _44_
*1044 _45_
*1045 _46_
*1046 _47_
*1047 _48_
*1048 _49_
*1049 _50_
*1050 _51_
*1051 _52_
*1052 _53_
*1053 _54_
*1054 _55_
*1055 _56_
*1056 _57_
*1057 _58_
*1058 _59_
*1059 _60_
*1060 _61_
*1061 _62_
*1062 _63_
*1063 _64_
*1064 _65_
*1065 _66_
*1066 _67_
*1067 _68_
*1068 _69_
*1069 _70_
*1070 _70__12
*1071 _71_
*1072 _71__18
*1073 _72_
*1074 _72__16
*1075 _73_
*1076 _73__13
*1077 _74_
*1078 _74__17
*1079 _75_
*1080 _75__11
*1081 _76_
*1082 _76__15
*1083 _77_
*1084 _77__14
*1085 clkbuf_0_clock_i
*1086 clkbuf_1_0__f_clock_i
*1087 clkbuf_1_1__f_clock_i
*1088 hold19
*1089 hold20
*1090 hold21
*1091 hold22
*1092 hold23
*1093 hold24
*1094 hold25
*1095 hold26
*1096 hold27
*1097 hold28
*1098 hold29
*1099 hold30
*1100 hold31
*1101 hold32
*1102 hold33
*1103 hold34
*1104 input1
*1105 input2
*1106 output10
*1107 output3
*1108 output4
*1109 output5
*1110 output6
*1111 output7
*1112 output8
*1113 output9

*PORTS
clock_i I
counter_value_o[0] O
counter_value_o[1] O
counter_value_o[2] O
counter_value_o[3] O
counter_value_o[4] O
counter_value_o[5] O
counter_value_o[6] O
counter_value_o[7] O
enable_i I
reset_n_i I

*D_NET *3 0.00742871
*CONN
*P clock_i I
*I *1085:A I *D sg13g2_buf_16
*CAP
1 clock_i 0.00330855
2 *1085:A 0.000133942
3 *3:16 0.000405806
4 *3:10 0.00358041
5 *1085:A *1044:A 0
6 *1085:A *1049:A1 0
7 *3:10 *1039:C 0
8 *3:10 *1107:A 0
9 *3:10 *1108:A 0
10 *3:10 *30:8 0
11 *3:10 *71:34 0
*RES
1 clock_i *3:10 41.9004 
2 *3:10 *3:16 43.3475 
3 *3:16 *1085:A 41.1845 
*END

*D_NET *4 0.00154285
*CONN
*P counter_value_o[0] O
*I *1107:X O *D sg13g2_buf_1
*CAP
1 counter_value_o[0] 0.000771425
2 *1107:X 0.000771425
*RES
1 *1107:X counter_value_o[0] 29.4039 
*END

*D_NET *5 0.00153494
*CONN
*P counter_value_o[1] O
*I *1108:X O *D sg13g2_buf_1
*CAP
1 counter_value_o[1] 0.000767471
2 *1108:X 0.000767471
3 counter_value_o[1] *1077:RESET_B 0
*RES
1 *1108:X counter_value_o[1] 29.4039 
*END

*D_NET *6 0.00153378
*CONN
*P counter_value_o[2] O
*I *1109:X O *D sg13g2_buf_1
*CAP
1 counter_value_o[2] 0.000766888
2 *1109:X 0.000766888
*RES
1 *1109:X counter_value_o[2] 29.4039 
*END

*D_NET *7 0.00152358
*CONN
*P counter_value_o[3] O
*I *1110:X O *D sg13g2_buf_1
*CAP
1 counter_value_o[3] 0.000761791
2 *1110:X 0.000761791
*RES
1 *1110:X counter_value_o[3] 29.4039 
*END

*D_NET *8 0.00152358
*CONN
*P counter_value_o[4] O
*I *1111:X O *D sg13g2_buf_1
*CAP
1 counter_value_o[4] 0.000761791
2 *1111:X 0.000761791
*RES
1 *1111:X counter_value_o[4] 29.4039 
*END

*D_NET *9 0.00162609
*CONN
*P counter_value_o[5] O
*I *1112:X O *D sg13g2_buf_1
*CAP
1 counter_value_o[5] 0.000813046
2 *1112:X 0.000813046
*RES
1 *1112:X counter_value_o[5] 30.1043 
*END

*D_NET *10 0.00152358
*CONN
*P counter_value_o[6] O
*I *1113:X O *D sg13g2_buf_1
*CAP
1 counter_value_o[6] 0.000761791
2 *1113:X 0.000761791
*RES
1 *1113:X counter_value_o[6] 29.4039 
*END

*D_NET *11 0.00152358
*CONN
*P counter_value_o[7] O
*I *1106:X O *D sg13g2_buf_1
*CAP
1 counter_value_o[7] 0.000761791
2 *1106:X 0.000761791
*RES
1 *1106:X counter_value_o[7] 29.4039 
*END

*D_NET *12 0.000839604
*CONN
*P enable_i I
*I *1104:A I *D sg13g2_buf_1
*CAP
1 enable_i 0.000419802
2 *1104:A 0.000419802
3 *1104:A *49:8 0
*RES
1 enable_i *1104:A 44.9955 
*END

*D_NET *13 0.000595311
*CONN
*P reset_n_i I
*I *1105:A I *D sg13g2_buf_1
*CAP
1 reset_n_i 0.000297655
2 *1105:A 0.000297655
3 *1105:A *49:8 0
*RES
1 reset_n_i *1105:A 43.6977 
*END

*D_NET *14 0.000756591
*CONN
*I *1081:D I *D sg13g2_dfrbpq_1
*I *1041:Y O *D sg13g2_nor2_1
*CAP
1 *1081:D 0.000378295
2 *1041:Y 0.000378295
3 *1081:D *1041:A 0
4 *1081:D *1081:RESET_B 0
*RES
1 *1041:Y *1081:D 43.4814 
*END

*D_NET *15 0.000185564
*CONN
*I *1093:A I *D sg13g2_dlygate4sd3_1
*I *1047:Y O *D sg13g2_a21oi_1
*CAP
1 *1093:A 9.2782e-05
2 *1047:Y 9.2782e-05
3 *1093:A *1047:A1 0
*RES
1 *1047:Y *1093:A 41.133 
*END

*D_NET *16 0.0011554
*CONN
*I *1090:A I *D sg13g2_dlygate4sd3_1
*I *1051:Y O *D sg13g2_a21oi_1
*CAP
1 *1090:A 3.03288e-05
2 *1051:Y 0.000218864
3 *16:8 0.000249193
4 *1090:A *1050:B 4.77425e-05
5 *16:8 *1049:B1 0
6 *16:8 *1086:A 0
7 *16:8 *26:58 0
8 *16:8 *31:8 0.00060927
*RES
1 *1051:Y *16:8 43.3166 
2 *16:8 *1090:A 40.3193 
*END

*D_NET *17 0.00116397
*CONN
*I *1101:A I *D sg13g2_dlygate4sd3_1
*I *1056:X O *D sg13g2_mux2_1
*CAP
1 *1101:A 0
2 *1056:X 0.000380597
3 *17:10 0.000380597
4 *17:10 *1052:A 0
5 *17:10 *1057:A 0.000274617
6 *17:10 *47:32 0
7 *17:10 *60:93 0.00012816
*RES
1 *1056:X *17:10 43.8522 
2 *17:10 *1101:A 40 
*END

*D_NET *18 0.00129087
*CONN
*I *1099:A I *D sg13g2_dlygate4sd3_1
*I *1061:X O *D sg13g2_mux2_1
*CAP
1 *1099:A 0.000508051
2 *1061:X 0.000508051
3 *1099:A *1061:A0 0
4 *1099:A *1061:A1 0
5 *1099:A *1071:RESET_B 0.000274769
6 *1099:A *1071:D 0
*RES
1 *1061:X *1099:A 45.6238 
*END

*D_NET *19 0.00029469
*CONN
*I *1075:D I *D sg13g2_dfrbpq_1
*I *1063:X O *D sg13g2_and2_1
*CAP
1 *1075:D 0.000147345
2 *1063:X 0.000147345
3 *1075:D *1063:B 0
4 *1075:D *1075:RESET_B 0
*RES
1 *1063:X *1075:D 41.3499 
*END

*D_NET *20 0.000325225
*CONN
*I *1077:D I *D sg13g2_dfrbpq_1
*I *1066:X O *D sg13g2_and2_1
*CAP
1 *1077:D 0.000162612
2 *1066:X 0.000162612
3 *1077:D *1066:B 0
*RES
1 *1066:X *1077:D 41.7819 
*END

*D_NET *21 0.000430886
*CONN
*I *1079:D I *D sg13g2_dfrbpq_1
*I *1068:X O *D sg13g2_and2_1
*CAP
1 *1079:D 0.000215443
2 *1068:X 0.000215443
3 *1079:D *1068:B 0
*RES
1 *1068:X *1079:D 41.9673 
*END

*D_NET *22 0.00546117
*CONN
*I *1051:B1 I *D sg13g2_a21oi_1
*I *1047:B1 I *D sg13g2_a21oi_1
*I *1041:A I *D sg13g2_nor2_1
*I *1038:Y O *D sg13g2_inv_1
*CAP
1 *1051:B1 0.000310477
2 *1047:B1 0
3 *1041:A 0.000827447
4 *1038:Y 0
5 *22:31 0.000500001
6 *22:23 0.00128003
7 *22:6 0.001297
8 *1041:A *1040:A 0
9 *1041:A *1041:B 0
10 *1041:A *1081:RESET_B 4.77425e-05
11 *1041:A *1086:A 0
12 *1041:A *1095:A 0
13 *1041:A *23:14 0.000112051
14 *1041:A *24:10 0
15 *1041:A *26:21 0
16 *1041:A *60:42 0
17 *1041:A *60:57 0
18 *1051:B1 *1044:A 0.000452513
19 *1051:B1 *1051:A1 0
20 *1051:B1 *26:40 0
21 *22:23 *26:21 0
22 *22:23 *60:57 0
23 *22:23 *79:20 0
24 *22:31 *1044:A 8.00842e-05
25 *22:31 *1046:A 0.000181279
26 *22:31 *27:10 0
27 *22:31 *27:19 0
28 *22:31 *62:10 0.000372556
29 *1081:D *1041:A 0
*RES
1 *1038:Y *22:6 40 
2 *22:6 *1041:A 47.3013 
3 *22:6 *22:23 24.3054 
4 *22:23 *22:31 46.2933 
5 *22:31 *1047:B1 20 
6 *22:23 *1051:B1 23.3475 
*END

*D_NET *23 0.00290392
*CONN
*I *1040:B I *D sg13g2_xor2_1
*I *1039:Y O *D sg13g2_nand4_1
*CAP
1 *1040:B 0
2 *1039:Y 0.000235459
3 *23:14 0.0010105
4 *23:8 0.00124596
5 *23:8 *1039:A 1.54008e-05
6 *23:8 *1043:A 0
7 *23:8 *26:10 0
8 *23:8 *60:38 0
9 *23:14 *24:10 0.00028455
10 *23:14 *26:10 0
11 *23:14 *26:21 0
12 *23:14 *60:42 0
13 *23:14 *60:46 0
14 *23:14 *60:57 0
15 *1041:A *23:14 0.000112051
*RES
1 *1039:Y *23:8 42.266 
2 *23:8 *23:14 31.3918 
3 *23:14 *1040:B 20 
*END

*D_NET *24 0.00205016
*CONN
*I *1095:A I *D sg13g2_dlygate4sd3_1
*I *1040:X O *D sg13g2_xor2_1
*CAP
1 *1095:A 0.0004663
2 *1040:X 0.000416506
3 *24:10 0.000882806
4 *1095:A *1048:C 0
5 *1095:A *1086:A 0
6 *24:10 *26:21 0
7 *24:10 *60:42 0
8 *1041:A *1095:A 0
9 *1041:A *24:10 0
10 *23:14 *24:10 0.00028455
*RES
1 *1040:X *24:10 44.1612 
2 *24:10 *1095:A 44.6453 
*END

*D_NET *25 0.00132693
*CONN
*I *1043:A I *D sg13g2_buf_4
*I *1042:Y O *D sg13g2_nand3_1
*CAP
1 *1043:A 0.000623424
2 *1042:Y 0.000623424
3 *1043:A *1039:D 8.00842e-05
4 *1043:A *1042:B 0
5 *1043:A *1042:A 0
6 *1043:A *1096:A 0
7 *1043:A *26:10 0
8 *23:8 *1043:A 0
*RES
1 *1042:Y *1043:A 46.2109 
*END

*D_NET *26 0.0139332
*CONN
*I *1060:B I *D sg13g2_nor4_2
*I *1055:A I *D sg13g2_nor3_1
*I *1050:B I *D sg13g2_or3_1
*I *1045:A1 I *D sg13g2_o21ai_1
*I *1046:B I *D sg13g2_or3_1
*I *1049:A1 I *D sg13g2_o21ai_1
*I *1067:B I *D sg13g2_xnor2_1
*I *1043:X O *D sg13g2_buf_4
*CAP
1 *1060:B 2.92417e-05
2 *1055:A 0.000212019
3 *1050:B 0.000413635
4 *1045:A1 0.00025716
5 *1046:B 4.72687e-05
6 *1049:A1 0.000261627
7 *1067:B 3.47831e-05
8 *1043:X 0.000307863
9 *26:71 0.00122815
10 *26:58 0.00167341
11 *26:40 0.000475213
12 *26:36 0.000709303
13 *26:21 0.0017177
14 *26:10 0.00153308
15 *1045:A1 *1045:A2 0.000112554
16 *1045:A1 *1046:A 0.00024211
17 *1046:B *1046:A 1.54008e-05
18 *1049:A1 *1044:A 0
19 *1049:A1 *1048:A 1.54008e-05
20 *1049:A1 *1049:A2 7.31538e-06
21 *1049:A1 *78:22 0
22 *1049:A1 *79:20 0
23 *1050:B *1050:A 0.000274578
24 *1050:B *1050:C 0
25 *1050:B *1069:D 0
26 *1050:B *1083:RESET_B 0
27 *1050:B *45:8 0
28 *1050:B *45:33 0
29 *1055:A *1060:A 0
30 *1055:A *36:10 0.00024211
31 *1060:B *36:10 3.23417e-05
32 *26:10 *60:38 0
33 *26:21 *1039:A 0
34 *26:21 *1086:A 0
35 *26:21 *46:38 0.00146243
36 *26:21 *75:10 0.000608025
37 *26:21 *79:20 0
38 *26:36 *1086:A 0
39 *26:36 *79:20 0
40 *26:58 *1086:A 0
41 *26:58 *79:20 0
42 *26:71 *36:10 7.51285e-05
43 *26:71 *45:38 0
44 *26:71 *58:10 0.0018976
45 *26:71 *58:25 0
46 *26:71 *79:20 0
47 *26:71 *79:42 0
48 *26:71 *80:10 0
49 *1041:A *26:21 0
50 *1043:A *26:10 0
51 *1051:B1 *26:40 0
52 *1085:A *1049:A1 0
53 *1090:A *1050:B 4.77425e-05
54 *16:8 *26:58 0
55 *22:23 *26:21 0
56 *23:8 *26:10 0
57 *23:14 *26:10 0
58 *23:14 *26:21 0
59 *24:10 *26:21 0
*RES
1 *1043:X *26:10 42.7398 
2 *26:10 *1067:B 40.3193 
3 *26:10 *26:21 14.6878 
4 *26:21 *1049:A1 42.4488 
5 *26:21 *26:36 2.575 
6 *26:36 *26:40 21.6171 
7 *26:40 *1046:B 20.5356 
8 *26:40 *1045:A1 22.8634 
9 *26:36 *26:58 2.8222 
10 *26:58 *1050:B 44.0279 
11 *26:58 *26:71 32.7102 
12 *26:71 *1055:A 22.0497 
13 *26:71 *1060:B 20.3193 
*END

*D_NET *27 0.00726662
*CONN
*I *1060:C I *D sg13g2_nor4_2
*I *1055:B I *D sg13g2_nor3_1
*I *1045:A2 I *D sg13g2_o21ai_1
*I *1046:C I *D sg13g2_or3_1
*I *1044:Y O *D sg13g2_nand2_2
*CAP
1 *1060:C 0.000217416
2 *1055:B 0
3 *1045:A2 0.00020878
4 *1046:C 0
5 *1044:Y 7.77948e-05
6 *27:36 0.0010795
7 *27:19 0.00117488
8 *27:10 0.000181811
9 *1045:A2 *1045:B1 4.77425e-05
10 *1045:A2 *1092:A 0.000177208
11 *1060:C *1055:C 0
12 *1060:C *36:10 0.00027448
13 *1060:C *79:42 0.000176811
14 *27:10 *60:57 0.000181781
15 *27:19 *60:57 0.000340789
16 *27:36 *29:8 0
17 *27:36 *60:57 0.00301506
18 *27:36 *62:10 0
19 *27:36 *62:36 0
20 *27:36 *64:8 0
21 *1045:A1 *1045:A2 0.000112554
22 *22:31 *27:10 0
23 *22:31 *27:19 0
*RES
1 *1044:Y *27:10 41.1639 
2 *27:10 *1046:C 40 
3 *27:10 *27:19 1.5862 
4 *27:19 *1045:A2 42.2866 
5 *27:19 *27:36 33.9462 
6 *27:36 *1055:B 20 
7 *27:36 *1060:C 22.266 
*END

*D_NET *28 0.000443583
*CONN
*I *1092:A I *D sg13g2_dlygate4sd3_1
*I *1045:Y O *D sg13g2_o21ai_1
*CAP
1 *1092:A 0.000133188
2 *1045:Y 0.000133188
3 *1092:A *1047:A2 0
4 *1092:A *1083:D 0
5 *1045:A2 *1092:A 0.000177208
*RES
1 *1045:Y *1092:A 41.4008 
*END

*D_NET *29 0.0007869
*CONN
*I *1047:A2 I *D sg13g2_a21oi_1
*I *1046:X O *D sg13g2_or3_1
*CAP
1 *1047:A2 0.000131997
2 *1046:X 0.0001567
3 *29:8 0.000288697
4 *1047:A2 *1047:A1 0.000209505
5 *29:8 *62:10 0
6 *1092:A *1047:A2 0
7 *27:36 *29:8 0
*RES
1 *1046:X *29:8 41.339 
2 *29:8 *1047:A2 41.4008 
*END

*D_NET *30 0.00244307
*CONN
*I *1050:C I *D sg13g2_or3_1
*I *1049:A2 I *D sg13g2_o21ai_1
*I *1048:Y O *D sg13g2_nand3_1
*CAP
1 *1050:C 0.000569359
2 *1049:A2 7.39516e-05
3 *1048:Y 9.69365e-05
4 *30:8 0.000740247
5 *1049:A2 *1049:B1 8.00842e-05
6 *1050:C *1049:B1 0.000875174
7 *1050:C *1083:RESET_B 0
8 *1050:C *1110:A 0
9 *1050:C *32:8 0
10 *1050:C *58:25 0
11 *30:8 *1110:A 0
12 *1049:A1 *1049:A2 7.31538e-06
13 *1050:B *1050:C 0
14 *3:10 *30:8 0
*RES
1 *1048:Y *30:8 40.8446 
2 *30:8 *1049:A2 40.8549 