*SPEF "ieee 1481-1999"
*DESIGN "counter_top"
*DATE "00:54:56 Monday May 11, 2026"
*VENDOR "The OpenROAD Project"
*PROGRAM "OpenROAD"
*VERSION "26Q1-1024-gdcf36133a"
*DESIGN_FLOW "NAME_SCOPE LOCAL" "PIN_CAP NONE"
*DIVIDER /
*DELIMITER :
*BUS_DELIMITER []
*T_UNIT 1 NS
*C_UNIT 1 PF
*R_UNIT 1 OHM
*L_UNIT 1 HENRY

*NAME_MAP
*3 clock_i
*4 counter_value_o[0]
*5 counter_value_o[1]
*6 counter_value_o[2]
*7 counter_value_o[3]
*8 counter_value_o[4]
*9 counter_value_o[5]
*10 counter_value_o[6]
*11 counter_value_o[7]
*12 enable_i
*13 reset_n_i
*14 _00_
*15 _01_
*16 _02_
*17 _03_
*18 _04_
*19 _05_
*20 _06_
*21 _07_
*22 _08_
*23 _09_
*24 _10_
*25 _11_
*26 _12_
*27 _13_
*28 _14_
*29 _15_
*30 _16_
*31 _17_
*32 _18_
*33 _19_
*34 _20_
*35 _21_
*36 _22_
*37 _23_
*38 _24_
*39 _25_
*40 _26_
*41 _27_
*42 _28_
*43 _29_
*44 clknet_0_clock_i
*45 clknet_1_0__leaf_clock_i
*46 clknet_1_1__leaf_clock_i
*47 net
*48 net1
*49 net10
*50 net11
*51 net12
*52 net13
*53 net14
*54 net15
*55 net16
*56 net17
*57 net18
*58 net19
*59 net2
*60 net20
*61 net21
*62 net22
*63 net23
*64 net24
*65 net25
*66 net26
*67 net27
*68 net28
*69 net29
*70 net3
*71 net30
*72 net31
*73 net32
*74 net33
*75 net34
*76 net4
*77 net5
*78 net6
*79 net7
*80 net8
*81 net9
*82 FILLER_0_0
*83 FILLER_0_105
*84 FILLER_0_112
*85 FILLER_0_119
*86 FILLER_0_126
*87 FILLER_0_133
*88 FILLER_0_14
*89 FILLER_0_140
*90 FILLER_0_147
*91 FILLER_0_154
*92 FILLER_0_161
*93 FILLER_0_168
*94 FILLER_0_175
*95 FILLER_0_182
*96 FILLER_0_189
*97 FILLER_0_196
*98 FILLER_0_203
*99 FILLER_0_21
*100 FILLER_0_210
*101 FILLER_0_217
*102 FILLER_0_224
*103 FILLER_0_231
*104 FILLER_0_238
*105 FILLER_0_245
*106 FILLER_0_252
*107 FILLER_0_259
*108 FILLER_0_266
*109 FILLER_0_273
*110 FILLER_0_28
*111 FILLER_0_280
*112 FILLER_0_287
*113 FILLER_0_294
*114 FILLER_0_301
*115 FILLER_0_308
*116 FILLER_0_315
*117 FILLER_0_322
*118 FILLER_0_329
*119 FILLER_0_336
*120 FILLER_0_343
*121 FILLER_0_35
*122 FILLER_0_350
*123 FILLER_0_357
*124 FILLER_0_364
*125 FILLER_0_371
*126 FILLER_0_378
*127 FILLER_0_385
*128 FILLER_0_387
*129 FILLER_0_42
*130 FILLER_0_49
*131 FILLER_0_56
*132 FILLER_0_63
*133 FILLER_0_7
*134 FILLER_0_70
*135 FILLER_0_77
*136 FILLER_0_84
*137 FILLER_0_91
*138 FILLER_0_98
*139 FILLER_10_0
*140 FILLER_10_105
*141 FILLER_10_112
*142 FILLER_10_119
*143 FILLER_10_126
*144 FILLER_10_133
*145 FILLER_10_14
*146 FILLER_10_140
*147 FILLER_10_147
*148 FILLER_10_154
*149 FILLER_10_161
*150 FILLER_10_168
*151 FILLER_10_175
*152 FILLER_10_182
*153 FILLER_10_189
*154 FILLER_10_196
*155 FILLER_10_203
*156 FILLER_10_21
*157 FILLER_10_210
*158 FILLER_10_217
*159 FILLER_10_224
*160 FILLER_10_231
*161 FILLER_10_238
*162 FILLER_10_245
*163 FILLER_10_252
*164 FILLER_10_259
*165 FILLER_10_266
*166 FILLER_10_273
*167 FILLER_10_28
*168 FILLER_10_280
*169 FILLER_10_287
*170 FILLER_10_294
*171 FILLER_10_301
*172 FILLER_10_308
*173 FILLER_10_315
*174 FILLER_10_319
*175 FILLER_10_35
*176 FILLER_10_375
*177 FILLER_10_382
*178 FILLER_10_386
*179 FILLER_10_42
*180 FILLER_10_49
*181 FILLER_10_56
*182 FILLER_10_63
*183 FILLER_10_7
*184 FILLER_10_70
*185 FILLER_10_77
*186 FILLER_10_84
*187 FILLER_10_91
*188 FILLER_10_98
*189 FILLER_11_0
*190 FILLER_11_105
*191 FILLER_11_112
*192 FILLER_11_119
*193 FILLER_11_126
*194 FILLER_11_133
*195 FILLER_11_14
*196 FILLER_11_140
*197 FILLER_11_147
*198 FILLER_11_154
*199 FILLER_11_161
*200 FILLER_11_168
*201 FILLER_11_175
*202 FILLER_11_182
*203 FILLER_11_189
*204 FILLER_11_196
*205 FILLER_11_203
*206 FILLER_11_21
*207 FILLER_11_210
*208 FILLER_11_217
*209 FILLER_11_224
*210 FILLER_11_231
*211 FILLER_11_238
*212 FILLER_11_245
*213 FILLER_11_252
*214 FILLER_11_259
*215 FILLER_11_266
*216 FILLER_11_273
*217 FILLER_11_28
*218 FILLER_11_280
*219 FILLER_11_287
*220 FILLER_11_294
*221 FILLER_11_301
*222 FILLER_11_308
*223 FILLER_11_315
*224 FILLER_11_322
*225 FILLER_11_330
*226 FILLER_11_337
*227 FILLER_11_344
*228 FILLER_11_35
*229 FILLER_11_355
*230 FILLER_11_389
*231 FILLER_11_391
*232 FILLER_11_42
*233 FILLER_11_49
*234 FILLER_11_56
*235 FILLER_11_63
*236 FILLER_11_7
*237 FILLER_11_70
*238 FILLER_11_77
*239 FILLER_11_84
*240 FILLER_11_91
*241 FILLER_11_98
*242 FILLER_12_0
*243 FILLER_12_105
*244 FILLER_12_112
*245 FILLER_12_119
*246 FILLER_12_126
*247 FILLER_12_133
*248 FILLER_12_14
*249 FILLER_12_140
*250 FILLER_12_147
*251 FILLER_12_154
*252 FILLER_12_161
*253 FILLER_12_168
*254 FILLER_12_175
*255 FILLER_12_182
*256 FILLER_12_189
*257 FILLER_12_196
*258 FILLER_12_203
*259 FILLER_12_21
*260 FILLER_12_210
*261 FILLER_12_217
*262 FILLER_12_224
*263 FILLER_12_231
*264 FILLER_12_238
*265 FILLER_12_245
*266 FILLER_12_252
*267 FILLER_12_259
*268 FILLER_12_266
*269 FILLER_12_273
*270 FILLER_12_28
*271 FILLER_12_280
*272 FILLER_12_287
*273 FILLER_12_294
*274 FILLER_12_301
*275 FILLER_12_308
*276 FILLER_12_315
*277 FILLER_12_322
*278 FILLER_12_326
*279 FILLER_12_331
*280 FILLER_12_338
*281 FILLER_12_345
*282 FILLER_12_35
*283 FILLER_12_352
*284 FILLER_12_376
*285 FILLER_12_386
*286 FILLER_12_390
*287 FILLER_12_42
*288 FILLER_12_49
*289 FILLER_12_56
*290 FILLER_12_63
*291 FILLER_12_7
*292 FILLER_12_70
*293 FILLER_12_77
*294 FILLER_12_84
*295 FILLER_12_91
*296 FILLER_12_98
*297 FILLER_13_0
*298 FILLER_13_105
*299 FILLER_13_112
*300 FILLER_13_119
*301 FILLER_13_126
*302 FILLER_13_133
*303 FILLER_13_14
*304 FILLER_13_140
*305 FILLER_13_147
*306 FILLER_13_154
*307 FILLER_13_161
*308 FILLER_13_168
*309 FILLER_13_175
*310 FILLER_13_182
*311 FILLER_13_189
*312 FILLER_13_196
*313 FILLER_13_203
*314 FILLER_13_21
*315 FILLER_13_210
*316 FILLER_13_217
*317 FILLER_13_224
*318 FILLER_13_231
*319 FILLER_13_238
*320 FILLER_13_245
*321 FILLER_13_252
*322 FILLER_13_259
*323 FILLER_13_266
*324 FILLER_13_273
*325 FILLER_13_28
*326 FILLER_13_280
*327 FILLER_13_287
*328 FILLER_13_294
*329 FILLER_13_301
*330 FILLER_13_308
*331 FILLER_13_315
*332 FILLER_13_322
*333 FILLER_13_329
*334 FILLER_13_336
*335 FILLER_13_343
*336 FILLER_13_35
*337 FILLER_13_380
*338 FILLER_13_387
*339 FILLER_13_391
*340 FILLER_13_42
*341 FILLER_13_49
*342 FILLER_13_56
*343 FILLER_13_63
*344 FILLER_13_7
*345 FILLER_13_70
*346 FILLER_13_77
*347 FILLER_13_84
*348 FILLER_13_91
*349 FILLER_13_98
*350 FILLER_14_0
*351 FILLER_14_105
*352 FILLER_14_112
*353 FILLER_14_119
*354 FILLER_14_126
*355 FILLER_14_133
*356 FILLER_14_14
*357 FILLER_14_140
*358 FILLER_14_147
*359 FILLER_14_154
*360 FILLER_14_161
*361 FILLER_14_168
*362 FILLER_14_175
*363 FILLER_14_182
*364 FILLER_14_189
*365 FILLER_14_196
*366 FILLER_14_203
*367 FILLER_14_21
*368 FILLER_14_210
*369 FILLER_14_217
*370 FILLER_14_224
*371 FILLER_14_231
*372 FILLER_14_238
*373 FILLER_14_245
*374 FILLER_14_252
*375 FILLER_14_259
*376 FILLER_14_266
*377 FILLER_14_273
*378 FILLER_14_28
*379 FILLER_14_280
*380 FILLER_14_287
*381 FILLER_14_294
*382 FILLER_14_301
*383 FILLER_14_308
*384 FILLER_14_315
*385 FILLER_14_322
*386 FILLER_14_338
*387 FILLER_14_345
*388 FILLER_14_35
*389 FILLER_14_358
*390 FILLER_14_384
*391 FILLER_14_42
*392 FILLER_14_49
*393 FILLER_14_56
*394 FILLER_14_63
*395 FILLER_14_7
*396 FILLER_14_70
*397 FILLER_14_77
*398 FILLER_14_84
*399 FILLER_14_91
*400 FILLER_14_98
*401 FILLER_15_0
*402 FILLER_15_105
*403 FILLER_15_112
*404 FILLER_15_119
*405 FILLER_15_126
*406 FILLER_15_133
*407 FILLER_15_14
*408 FILLER_15_140
*409 FILLER_15_147
*410 FILLER_15_154
*411 FILLER_15_161
*412 FILLER_15_168
*413 FILLER_15_175
*414 FILLER_15_182
*415 FILLER_15_189
*416 FILLER_15_196
*417 FILLER_15_203
*418 FILLER_15_21
*419 FILLER_15_210
*420 FILLER_15_217
*421 FILLER_15_224
*422 FILLER_15_231
*423 FILLER_15_238
*424 FILLER_15_245
*425 FILLER_15_252
*426 FILLER_15_259
*427 FILLER_15_266
*428 FILLER_15_273
*429 FILLER_15_28
*430 FILLER_15_280
*431 FILLER_15_287
*432 FILLER_15_294
*433 FILLER_15_301
*434 FILLER_15_308
*435 FILLER_15_315
*436 FILLER_15_322
*437 FILLER_15_339
*438 FILLER_15_346
*439 FILLER_15_35
*440 FILLER_15_357
*441 FILLER_15_361
*442 FILLER_15_389
*443 FILLER_15_391
*444 FILLER_15_42
*445 FILLER_15_49
*446 FILLER_15_56
*447 FILLER_15_63
*448 FILLER_15_7
*449 FILLER_15_70
*450 FILLER_15_77
*451 FILLER_15_84
*452 FILLER_15_91
*453 FILLER_15_98
*454 FILLER_16_0
*455 FILLER_16_105
*456 FILLER_16_112
*457 FILLER_16_119
*458 FILLER_16_126
*459 FILLER_16_133
*460 FILLER_16_14
*461 FILLER_16_140
*462 FILLER_16_147
*463 FILLER_16_154
*464 FILLER_16_161
*465 FILLER_16_168
*466 FILLER_16_175
*467 FILLER_16_182
*468 FILLER_16_189
*469 FILLER_16_196
*470 FILLER_16_203
*471 FILLER_16_21
*472 FILLER_16_210
*473 FILLER_16_217
*474 FILLER_16_224
*475 FILLER_16_231
*476 FILLER_16_238
*477 FILLER_16_245
*478 FILLER_16_252
*479 FILLER_16_259
*480 FILLER_16_266
*481 FILLER_16_273
*482 FILLER_16_28
*483 FILLER_16_280
*484 FILLER_16_287
*485 FILLER_16_294
*486 FILLER_16_301
*487 FILLER_16_308
*488 FILLER_16_315
*489 FILLER_16_322
*490 FILLER_16_329
*491 FILLER_16_331
*492 FILLER_16_35
*493 FILLER_16_372
*494 FILLER_16_376
*495 FILLER_16_387
*496 FILLER_16_391
*497 FILLER_16_42
*498 FILLER_16_49
*499 FILLER_16_56
*500 FILLER_16_63
*501 FILLER_16_7
*502 FILLER_16_70
*503 FILLER_16_77
*504 FILLER_16_84
*505 FILLER_16_91
*506 FILLER_16_98
*507 FILLER_17_0
*508 FILLER_17_105
*509 FILLER_17_112
*510 FILLER_17_119
*511 FILLER_17_126
*512 FILLER_17_133
*513 FILLER_17_14
*514 FILLER_17_140
*515 FILLER_17_147
*516 FILLER_17_154
*517 FILLER_17_161
*518 FILLER_17_168
*519 FILLER_17_175
*520 FILLER_17_182
*521 FILLER_17_189
*522 FILLER_17_196
*523 FILLER_17_203
*524 FILLER_17_21
*525 FILLER_17_210
*526 FILLER_17_217
*527 FILLER_17_224
*528 FILLER_17_231
*529 FILLER_17_238
*530 FILLER_17_245
*531 FILLER_17_252
*532 FILLER_17_259
*533 FILLER_17_266
*534 FILLER_17_273
*535 FILLER_17_28
*536 FILLER_17_280
*537 FILLER_17_287
*538 FILLER_17_294
*539 FILLER_17_301
*540 FILLER_17_308
*541 FILLER_17_315
*542 FILLER_17_322
*543 FILLER_17_329
*544 FILLER_17_344
*545 FILLER_17_35
*546 FILLER_17_351
*547 FILLER_17_358
*548 FILLER_17_365
*549 FILLER_17_372
*550 FILLER_17_379
*551 FILLER_17_383
*552 FILLER_17_42
*553 FILLER_17_49
*554 FILLER_17_56
*555 FILLER_17_63
*556 FILLER_17_7
*557 FILLER_17_70
*558 FILLER_17_77
*559 FILLER_17_84
*560 FILLER_17_91
*561 FILLER_17_98
*562 FILLER_1_102
*563 FILLER_1_109
*564 FILLER_1_11
*565 FILLER_1_116
*566 FILLER_1_123
*567 FILLER_1_130
*568 FILLER_1_137
*569 FILLER_1_144
*570 FILLER_1_151
*571 FILLER_1_158
*572 FILLER_1_165
*573 FILLER_1_172
*574 FILLER_1_179
*575 FILLER_1_18
*576 FILLER_1_186
*577 FILLER_1_193
*578 FILLER_1_200
*579 FILLER_1_207
*580 FILLER_1_214
*581 FILLER_1_221
*582 FILLER_1_228
*583 FILLER_1_235
*584 FILLER_1_242
*585 FILLER_1_249
*586 FILLER_1_25
*587 FILLER_1_256
*588 FILLER_1_263
*589 FILLER_1_270
*590 FILLER_1_277
*591 FILLER_1_284
*592 FILLER_1_291
*593 FILLER_1_298
*594 FILLER_1_305
*595 FILLER_1_312
*596 FILLER_1_319
*597 FILLER_1_32
*598 FILLER_1_326
*599 FILLER_1_328
*600 FILLER_1_341
*601 FILLER_1_348
*602 FILLER_1_366
*603 FILLER_1_373
*604 FILLER_1_383
*605 FILLER_1_387
*606 FILLER_1_39
*607 FILLER_1_4
*608 FILLER_1_46
*609 FILLER_1_53
*610 FILLER_1_60
*611 FILLER_1_67
*612 FILLER_1_74
*613 FILLER_1_81
*614 FILLER_1_88
*615 FILLER_1_95
*616 FILLER_2_0
*617 FILLER_2_105
*618 FILLER_2_112
*619 FILLER_2_119
*620 FILLER_2_126
*621 FILLER_2_133
*622 FILLER_2_14
*623 FILLER_2_140
*624 FILLER_2_147
*625 FILLER_2_154
*626 FILLER_2_161
*627 FILLER_2_168
*628 FILLER_2_175
*629 FILLER_2_182
*630 FILLER_2_189
*631 FILLER_2_196
*632 FILLER_2_203
*633 FILLER_2_21
*634 FILLER_2_210
*635 FILLER_2_217
*636 FILLER_2_224
*637 FILLER_2_231
*638 FILLER_2_238
*639 FILLER_2_245
*640 FILLER_2_252
*641 FILLER_2_259
*642 FILLER_2_266
*643 FILLER_2_273
*644 FILLER_2_28
*645 FILLER_2_280
*646 FILLER_2_287
*647 FILLER_2_294
*648 FILLER_2_301
*649 FILLER_2_308
*650 FILLER_2_315
*651 FILLER_2_319
*652 FILLER_2_35
*653 FILLER_2_357
*654 FILLER_2_388
*655 FILLER_2_42
*656 FILLER_2_49
*657 FILLER_2_56
*658 FILLER_2_63
*659 FILLER_2_7
*660 FILLER_2_70
*661 FILLER_2_77
*662 FILLER_2_84
*663 FILLER_2_91
*664 FILLER_2_98
*665 FILLER_3_0
*666 FILLER_3_105
*667 FILLER_3_112
*668 FILLER_3_119
*669 FILLER_3_126
*670 FILLER_3_133
*671 FILLER_3_14
*672 FILLER_3_140
*673 FILLER_3_147
*674 FILLER_3_154
*675 FILLER_3_161
*676 FILLER_3_168
*677 FILLER_3_175
*678 FILLER_3_182
*679 FILLER_3_189
*680 FILLER_3_196
*681 FILLER_3_203
*682 FILLER_3_21
*683 FILLER_3_210
*684 FILLER_3_217
*685 FILLER_3_224
*686 FILLER_3_231
*687 FILLER_3_238
*688 FILLER_3_245
*689 FILLER_3_252
*690 FILLER_3_259
*691 FILLER_3_266
*692 FILLER_3_273
*693 FILLER_3_28
*694 FILLER_3_280
*695 FILLER_3_287
*696 FILLER_3_294
*697 FILLER_3_301
*698 FILLER_3_308
*699 FILLER_3_315
*700 FILLER_3_322
*701 FILLER_3_330
*702 FILLER_3_337
*703 FILLER_3_344
*704 FILLER_3_35
*705 FILLER_3_351
*706 FILLER_3_370
*707 FILLER_3_377
*708 FILLER_3_384
*709 FILLER_3_391
*710 FILLER_3_42
*711 FILLER_3_49
*712 FILLER_3_56
*713 FILLER_3_63
*714 FILLER_3_7
*715 FILLER_3_70
*716 FILLER_3_77
*717 FILLER_3_84
*718 FILLER_3_91
*719 FILLER_3_98
*720 FILLER_4_0
*721 FILLER_4_105
*722 FILLER_4_112
*723 FILLER_4_119
*724 FILLER_4_126
*725 FILLER_4_133
*726 FILLER_4_14
*727 FILLER_4_140
*728 FILLER_4_147
*729 FILLER_4_154
*730 FILLER_4_161
*731 FILLER_4_168
*732 FILLER_4_175
*733 FILLER_4_182
*734 FILLER_4_189
*735 FILLER_4_196
*736 FILLER_4_203
*737 FILLER_4_21
*738 FILLER_4_210
*739 FILLER_4_217
*740 FILLER_4_224
*741 FILLER_4_231
*742 FILLER_4_238
*743 FILLER_4_245
*744 FILLER_4_252
*745 FILLER_4_259
*746 FILLER_4_266
*747 FILLER_4_273
*748 FILLER_4_28
*749 FILLER_4_280
*750 FILLER_4_287
*751 FILLER_4_294
*752 FILLER_4_301
*753 FILLER_4_308
*754 FILLER_4_315
*755 FILLER_4_322
*756 FILLER_4_329
*757 FILLER_4_336
*758 FILLER_4_343
*759 FILLER_4_35
*760 FILLER_4_350
*761 FILLER_4_354
*762 FILLER_4_377
*763 FILLER_4_384
*764 FILLER_4_391
*765 FILLER_4_42
*766 FILLER_4_49
*767 FILLER_4_56
*768 FILLER_4_63
*769 FILLER_4_7
*770 FILLER_4_70
*771 FILLER_4_77
*772 FILLER_4_84
*773 FILLER_4_91
*774 FILLER_4_98
*775 FILLER_5_0
*776 FILLER_5_105
*777 FILLER_5_112
*778 FILLER_5_119
*779 FILLER_5_126
*780 FILLER_5_133
*781 FILLER_5_14
*782 FILLER_5_140
*783 FILLER_5_147
*784 FILLER_5_154
*785 FILLER_5_161
*786 FILLER_5_168
*787 FILLER_5_175
*788 FILLER_5_182
*789 FILLER_5_189
*790 FILLER_5_196
*791 FILLER_5_203
*792 FILLER_5_21
*793 FILLER_5_210
*794 FILLER_5_217
*795 FILLER_5_224
*796 FILLER_5_231
*797 FILLER_5_238
*798 FILLER_5_245
*799 FILLER_5_252
*800 FILLER_5_259
*801 FILLER_5_266
*802 FILLER_5_273
*803 FILLER_5_28
*804 FILLER_5_280
*805 FILLER_5_287
*806 FILLER_5_294
*807 FILLER_5_301
*808 FILLER_5_308
*809 FILLER_5_315
*810 FILLER_5_322
*811 FILLER_5_329
*812 FILLER_5_336
*813 FILLER_5_343
*814 FILLER_5_35
*815 FILLER_5_355
*816 FILLER_5_359
*817 FILLER_5_385
*818 FILLER_5_387
*819 FILLER_5_42
*820 FILLER_5_49
*821 FILLER_5_56
*822 FILLER_5_63
*823 FILLER_5_7
*824 FILLER_5_70
*825 FILLER_5_77
*826 FILLER_5_84
*827 FILLER_5_91
*828 FILLER_5_98
*829 FILLER_6_0
*830 FILLER_6_105
*831 FILLER_6_112
*832 FILLER_6_119
*833 FILLER_6_126
*834 FILLER_6_133
*835 FILLER_6_14
*836 FILLER_6_140
*837 FILLER_6_147
*838 FILLER_6_154
*839 FILLER_6_161
*840 FILLER_6_168
*841 FILLER_6_175
*842 FILLER_6_182
*843 FILLER_6_189
*844 FILLER_6_196
*845 FILLER_6_203
*846 FILLER_6_21
*847 FILLER_6_210
*848 FILLER_6_217
*849 FILLER_6_224
*850 FILLER_6_231
*851 FILLER_6_238
*852 FILLER_6_245
*853 FILLER_6_252
*854 FILLER_6_259
*855 FILLER_6_266
*856 FILLER_6_273
*857 FILLER_6_28
*858 FILLER_6_280
*859 FILLER_6_287
*860 FILLER_6_294
*861 FILLER_6_301
*862 FILLER_6_308
*863 FILLER_6_315
*864 FILLER_6_322
*865 FILLER_6_329
*866 FILLER_6_336
*867 FILLER_6_35
*868 FILLER_6_378
*869 FILLER_6_391
*870 FILLER_6_42
*871 FILLER_6_49
*872 FILLER_6_56
*873 FILLER_6_63
*874 FILLER_6_7
*875 FILLER_6_70
*876 FILLER_6_77
*877 FILLER_6_84
*878 FILLER_6_91
*879 FILLER_6_98
*880 FILLER_7_0
*881 FILLER_7_105
*882 FILLER_7_112
*883 FILLER_7_119
*884 FILLER_7_126
*885 FILLER_7_133
*886 FILLER_7_14
*887 FILLER_7_140
*888 FILLER_7_147
*889 FILLER_7_154
*890 FILLER_7_161
*891 FILLER_7_168
*892 FILLER_7_175
*893 FILLER_7_182
*894 FILLER_7_189
*895 FILLER_7_196
*896 FILLER_7_203
*897 FILLER_7_21
*898 FILLER_7_210
*899 FILLER_7_217
*900 FILLER_7_224
*901 FILLER_7_231
*902 FILLER_7_238
*903 FILLER_7_245
*904 FILLER_7_252
*905 FILLER_7_259
*906 FILLER_7_266
*907 FILLER_7_273
*908 FILLER_7_28
*909 FILLER_7_280
*910 FILLER_7_287
*911 FILLER_7_294
*912 FILLER_7_301
*913 FILLER_7_308
*914 FILLER_7_315
*915 FILLER_7_322
*916 FILLER_7_329
*917 FILLER_7_336
*918 FILLER_7_343
*919 FILLER_7_35
*920 FILLER_7_351
*921 FILLER_7_389
*922 FILLER_7_391
*923 FILLER_7_42
*924 FILLER_7_49
*925 FILLER_7_56
*926 FILLER_7_63
*927 FILLER_7_7
*928 FILLER_7_70
*929 FILLER_7_77
*930 FILLER_7_84
*931 FILLER_7_91
*932 FILLER_7_98
*933 FILLER_8_0
*934 FILLER_8_105
*935 FILLER_8_112
*936 FILLER_8_119
*937 FILLER_8_126
*938 FILLER_8_133
*939 FILLER_8_14
*940 FILLER_8_140
*941 FILLER_8_147
*942 FILLER_8_154
*943 FILLER_8_161
*944 FILLER_8_168
*945 FILLER_8_175
*946 FILLER_8_182
*947 FILLER_8_189
*948 FILLER_8_196
*949 FILLER_8_203
*950 FILLER_8_21
*951 FILLER_8_210
*952 FILLER_8_217
*953 FILLER_8_224
*954 FILLER_8_231
*955 FILLER_8_238
*956 FILLER_8_245
*957 FILLER_8_252
*958 FILLER_8_259
*959 FILLER_8_266
*960 FILLER_8_273
*961 FILLER_8_28
*962 FILLER_8_280
*963 FILLER_8_287
*964 FILLER_8_294
*965 FILLER_8_301
*966 FILLER_8_308
*967 FILLER_8_315
*968 FILLER_8_322
*969 FILLER_8_329
*970 FILLER_8_336
*971 FILLER_8_343
*972 FILLER_8_349
*973 FILLER_8_35
*974 FILLER_8_356
*975 FILLER_8_360
*976 FILLER_8_374
*977 FILLER_8_381
*978 FILLER_8_42
*979 FILLER_8_49
*980 FILLER_8_56
*981 FILLER_8_63
*982 FILLER_8_7
*983 FILLER_8_70
*984 FILLER_8_77
*985 FILLER_8_84
*986 FILLER_8_91
*987 FILLER_8_98
*988 FILLER_9_102
*989 FILLER_9_109
*990 FILLER_9_11
*991 FILLER_9_116
*992 FILLER_9_123
*993 FILLER_9_130
*994 FILLER_9_137
*995 FILLER_9_144
*996 FILLER_9_151
*997 FILLER_9_158
*998 FILLER_9_165
*999 FILLER_9_172
*1000 FILLER_9_179
*1001 FILLER_9_18
*1002 FILLER_9_186
*1003 FILLER_9_193
*1004 FILLER_9_200
*1005 FILLER_9_207
*1006 FILLER_9_214
*1007 FILLER_9_221
*1008 FILLER_9_228
*1009 FILLER_9_235
*1010 FILLER_9_242
*1011 FILLER_9_249
*1012 FILLER_9_25
*1013 FILLER_9_256
*1014 FILLER_9_263
*1015 FILLER_9_270
*1016 FILLER_9_277
*1017 FILLER_9_284
*1018 FILLER_9_291
*1019 FILLER_9_298
*1020 FILLER_9_305
*1021 FILLER_9_312
*1022 FILLER_9_319
*1023 FILLER_9_32
*1024 FILLER_9_326
*1025 FILLER_9_330
*1026 FILLER_9_340
*1027 FILLER_9_342
*1028 FILLER_9_381
*1029 FILLER_9_388
*1030 FILLER_9_39
*1031 FILLER_9_4
*1032 FILLER_9_46
*1033 FILLER_9_53
*1034 FILLER_9_60
*1035 FILLER_9_67
*1036 FILLER_9_74
*1037 FILLER_9_81
*1038 FILLER_9_88
*1039 FILLER_9_95
*1040 _38_
*1041 _39_
*1042 _40_
*1043 _41_
*1044 _42_
*1045 _43_
*1046 _44_
*1047 _45_
*1048 _46_
*1049 _47_
*1050 _48_
*1051 _49_
*1052 _50_
*1053 _51_
*1054 _52_
*1055 _53_
*1056 _54_
*1057 _55_
*1058 _56_
*1059 _57_
*1060 _58_
*1061 _59_
*1062 _60_
*1063 _61_
*1064 _62_
*1065 _63_
*1066 _64_
*1067 _65_
*1068 _66_
*1069 _67_
*1070 _68_
*1071 _68__12
*1072 _69_
*1073 _69__18
*1074 _70_
*1075 _70__16
*1076 _71_
*1077 _71__13
*1078 _72_
*1079 _72__17
*1080 _73_
*1081 _73__11
*1082 _74_
*1083 _74__15
*1084 _75_
*1085 _75__14
*1086 clkbuf_0_clock_i
*1087 clkbuf_1_0__f_clock_i
*1088 clkbuf_1_1__f_clock_i
*1089 hold19
*1090 hold20
*1091 hold21
*1092 hold22
*1093 hold23
*1094 hold24
*1095 hold25
*1096 hold26
*1097 hold27
*1098 hold28
*1099 hold29
*1100 hold30
*1101 hold31
*1102 hold32
*1103 hold33
*1104 hold34
*1105 hold35
*1106 input1
*1107 input2
*1108 output10
*1109 output3
*1110 output4
*1111 output5
*1112 output6
*1113 output7
*1114 output8
*1115 output9

*PORTS
clock_i I
counter_value_o[0] O
counter_value_o[1] O
counter_value_o[2] O
counter_value_o[3] O
counter_value_o[4] O
counter_value_o[5] O
counter_value_o[6] O
counter_value_o[7] O
enable_i I
reset_n_i I

*D_NET *3 0.0178944
*CONN
*P clock_i I
*I *1086:A I *D sg13g2_buf_16
*CAP
1 clock_i 0.000761581
2 *1086:A 0
3 *3:45 0.000713593
4 *3:26 0.00209397
5 *3:10 0.00747202
6 *3:8 0.00685323
7 *3:10 *74:8 0
8 *3:26 *1046:B1 0
9 *3:26 *1050:B 0
10 *3:26 *1064:A 0
11 *3:26 *1064:B 0
12 *3:26 *1084:CLK 0
13 *3:26 *1094:A 0
14 *3:26 *24:35 0
15 *3:26 *27:33 0
16 *3:26 *31:10 0
17 *3:45 *1064:A 0
18 *3:45 *1064:C 0
19 *3:45 *27:47 0
20 *3:45 *64:20 0
*RES
1 clock_i *3:8 9.6614 
2 *3:8 *3:10 79.7014 
3 *3:10 *3:26 34.0389 
4 *3:26 *3:45 46.8701 
5 *3:45 *1086:A 20 
*END

*D_NET *4 0.00114318
*CONN
*P counter_value_o[0] O
*I *1109:X O *D sg13g2_buf_1
*CAP
1 counter_value_o[0] 0.000571592
2 *1109:X 0.000571592
*RES
1 *1109:X counter_value_o[0] 47.107 
*END

*D_NET *5 0.000552608
*CONN
*P counter_value_o[1] O
*I *1110:X O *D sg13g2_buf_1
*CAP
1 counter_value_o[1] 0.000276304
2 *1110:X 0.000276304
*RES
1 *1110:X counter_value_o[1] 43.6462 
*END

*D_NET *6 0.000783708
*CONN
*P counter_value_o[2] O
*I *1111:X O *D sg13g2_buf_1
*CAP
1 counter_value_o[2] 0.000391854
2 *1111:X 0.000391854
*RES
1 *1111:X counter_value_o[2] 44.7277 
*END

*D_NET *7 0.000805028
*CONN
*P counter_value_o[3] O
*I *1112:X O *D sg13g2_buf_1
*CAP
1 counter_value_o[3] 0.000378558
2 *1112:X 0.000378558
3 counter_value_o[3] *1101:A 4.79124e-05
4 counter_value_o[3] *78:8 0
*RES
1 *1112:X counter_value_o[3] 44.5114 
*END

*D_NET *8 0.000504216
*CONN
*P counter_value_o[4] O
*I *1113:X O *D sg13g2_buf_1
*CAP
1 counter_value_o[4] 0.000252108
2 *1113:X 0.000252108
*RES
1 *1113:X counter_value_o[4] 43.3269 
*END

*D_NET *9 0.000680943
*CONN
*P counter_value_o[5] O
*I *1114:X O *D sg13g2_buf_1
*CAP
1 counter_value_o[5] 0.000340471
2 *1114:X 0.000340471
3 counter_value_o[5] *1114:A 0
*RES
1 *1114:X counter_value_o[5] 44.0788 
*END

*D_NET *10 0.000623611
*CONN
*P counter_value_o[6] O
*I *1115:X O *D sg13g2_buf_1
*CAP
1 counter_value_o[6] 0.000311806
2 *1115:X 0.000311806
3 counter_value_o[6] *1115:A 0
*RES
1 *1115:X counter_value_o[6] 43.8625 
*END

*D_NET *11 0.00145096
*CONN
*P counter_value_o[7] O
*I *1108:X O *D sg13g2_buf_1
*CAP
1 counter_value_o[7] 0.000725479
2 *1108:X 0.000725479
*RES
1 *1108:X counter_value_o[7] 48.961 
*END

*D_NET *12 0.000834467
*CONN
*P enable_i I
*I *1106:A I *D sg13g2_buf_1
*CAP
1 enable_i 0.000417234
2 *1106:A 0.000417234
*RES
1 enable_i *1106:A 44.9955 
*END

*D_NET *13 0.000590842
*CONN
*P reset_n_i I
*I *1107:A I *D sg13g2_buf_1
*CAP
1 reset_n_i 0.000295421
2 *1107:A 0.000295421
*RES
1 reset_n_i *1107:A 43.6977 
*END

*D_NET *14 0.0015286
*CONN
*I *1094:A I *D sg13g2_dlygate4sd3_1
*I *1046:Y O *D sg13g2_a21oi_1
*CAP
1 *1094:A 0.000724402
2 *1046:Y 0.000724402
3 *1094:A *1049:A 0
4 *1094:A *1050:B 7.97992e-05
5 *1094:A *31:10 0
6 *3:26 *1094:A 0
*RES
1 *1046:Y *1094:A 46.266 
*END

*D_NET *15 0.00114607
*CONN
*I *1104:A I *D sg13g2_dlygate4sd3_1
*I *1051:X O *D sg13g2_mux2_1
*CAP
1 *1104:A 0.000427922
2 *1051:X 0.000427922
3 *1104:A *1047:B 0
4 *1104:A *1051:A0 0
5 *1104:A *1051:A1 4.79124e-05
6 *1104:A *1084:RESET_B 0
7 *1104:A *1084:D 0.000242313
*RES
1 *1051:X *1104:A 45.0264 
*END

*D_NET *16 0.000721389
*CONN
*I *1070:D I *D sg13g2_dfrbpq_1
*I *1053:Y O *D sg13g2_nor2_1
*CAP
1 *1070:D 0.000360695
2 *1053:Y 0.000360695
3 *1070:D *1052:B 0
*RES
1 *1053:Y *1070:D 43.7183 
*END

*D_NET *17 0.000658084
*CONN
*I *1072:D I *D sg13g2_dfrbpq_1
*I *1056:Y O *D sg13g2_nor2_1
*CAP
1 *1072:D 0.000289151
2 *1056:Y 0.000289151
3 *1072:D *48:33 7.97822e-05
4 *1072:D *67:12 0
*RES
1 *1056:Y *1072:D 43.1209 
*END

*D_NET *18 0.00019677
*CONN
*I *1074:D I *D sg13g2_dfrbpq_1
*I *1058:Y O *D sg13g2_nor2_1
*CAP
1 *1074:D 9.83852e-05
2 *1058:Y 9.83852e-05
*RES
1 *1058:Y *1074:D 40.7634 
*END

*D_NET *19 0.000217971
*CONN
*I *1076:D I *D sg13g2_dfrbpq_1
*I *1061:Y O *D sg13g2_nor2_1
*CAP
1 *1076:D 9.36195e-05
2 *1061:Y 9.36195e-05
3 *1076:D *1076:RESET_B 1.53311e-05
4 *1076:D *27:47 1.54008e-05
*RES
1 *1061:Y *1076:D 41.133 
*END

*D_NET *20 0.000433377
*CONN
*I *1097:A I *D sg13g2_dlygate4sd3_1
*I *1065:Y O *D sg13g2_a21oi_1
*CAP
1 *1097:A 0.000144982
2 *1065:Y 0.000144982
3 *1097:A *1065:A1 0.000143413
*RES
1 *1065:Y *1097:A 41.6171 
*END

*D_NET *21 0.000692601
*CONN
*I *1091:A I *D sg13g2_dlygate4sd3_1
*I *1069:Y O *D sg13g2_a21oi_1
*CAP
1 *1091:A 0.000234698
2 *1069:Y 0.000234698
3 *1091:A *1064:B 0
4 *1091:A *1069:A1 0.000207804
5 *1091:A *27:33 1.54008e-05
*RES
1 *1069:Y *1091:A 42.7398 
*END

*D_NET *22 0.000364188
*CONN
*I *1041:A I *D sg13g2_buf_4
*I *1040:Y O *D sg13g2_nand3_1
*CAP
1 *1041:A 0.000182094
2 *1040:Y 0.000182094
*RES
1 *1040:Y *1041:A 41.751 
*END

*D_NET *23 0.00906754
*CONN
*I *1067:A1 I *D sg13g2_o21ai_1
*I *1043:A1 I *D sg13g2_o21ai_1
*I *1044:B I *D sg13g2_or3_1
*I *1064:B I *D sg13g2_or3_1
*I *1050:B I *D sg13g2_nor3_2
*I *1068:B I *D sg13g2_or3_1
*I *1063:A1 I *D sg13g2_o21ai_1
*I *1057:B I *D sg13g2_xor2_1
*I *1041:X O *D sg13g2_buf_4
*CAP
1 *1067:A1 2.77263e-05
2 *1043:A1 7.6843e-05
3 *1044:B 5.51774e-05
4 *1064:B 0.000442002
5 *1050:B 0.000364024
6 *1068:B 0
7 *1063:A1 9.25097e-05
8 *1057:B 0
9 *1041:X 0.000319121
10 *23:53 0.000974832
11 *23:51 0.000425043
12 *23:47 0.000453976
13 *23:45 0.000754514
14 *23:34 0.00129532
15 *23:17 0.00135423
16 *23:10 0.000836237
17 *1043:A1 *1093:A 1.54008e-05
18 *1044:B *1044:A 1.54008e-05
19 *1044:B *1046:B1 0
20 *1044:B *24:18 0
21 *1044:B *46:8 0
22 *1050:B *1046:B1 7.98406e-05
23 *1050:B *31:10 1.54008e-05
24 *1063:A1 *1063:A2 7.31538e-06
25 *1064:B *27:33 0
26 *23:17 *1061:B 0
27 *23:34 *1062:A 0
28 *23:34 *1066:B 0
29 *23:34 *1076:RESET_B 0
30 *23:34 *1102:A 0
31 *23:34 *27:47 0
32 *23:34 *57:14 1.54008e-05
33 *23:34 *57:22 8.00842e-05
34 *23:34 *72:8 0.000287235
35 *23:34 *77:23 0
36 *23:45 *1067:A2 0
37 *23:45 *1068:C 0
38 *23:45 *1080:RESET_B 0
39 *23:45 *1090:A 8.0216e-05
40 *23:45 *57:14 0.000129613
41 *23:47 *1080:RESET_B 0
42 *23:47 *44:15 0
43 *23:47 *46:8 0
44 *23:51 *1043:A2 0.000555228
45 *23:51 *47:10 0.000235055
46 *23:51 *62:8 0
47 *1091:A *1064:B 0
48 *1094:A *1050:B 7.97992e-05
49 *3:26 *1050:B 0
50 *3:26 *1064:B 0
*RES
1 *1041:X *23:10 23.708 
2 *23:10 *1057:B 20 
3 *23:10 *23:17 5.5105 
4 *23:17 *1063:A1 21.1098 
5 *23:17 *23:34 48.2709 
6 *23:34 *1068:B 20 
7 *23:34 *23:45 5.1912 
8 *23:45 *23:47 1.7454 
9 *23:47 *23:51 23.0694 
10 *23:51 *23:53 1.5862 
11 *23:53 *1050:B 43.5638 
12 *23:53 *1064:B 43.8384 
13 *23:51 *1044:B 40.5356 
14 *23:47 *1043:A1 20.8858 
15 *23:45 *1067:A1 20.3502 
*END

*D_NET *24 0.00359078
*CONN
*I *1043:A2 I *D sg13g2_o21ai_1
*I *1050:C I *D sg13g2_nor3_2
*I *1044:C I *D sg13g2_or3_1
*I *1042:Y O *D sg13g2_nand4_1
*CAP
1 *1043:A2 0.0002979
2 *1050:C 0
3 *1044:C 0
4 *1042:Y 0.000119792
5 *24:35 0.000556342
6 *24:18 0.000592572
7 *24:14 0.00068372
8 *24:8 0.000469383
9 *1043:A2 *47:10 0
10 *1043:A2 *61:23 0
11 *1043:A2 *62:8 0.000127258
12 *24:8 *1069:A2 1.53311e-05
13 *24:8 *27:47 4.73245e-05
14 *24:35 *1049:A 0
15 *24:35 *46:8 0
16 *24:35 *73:10 0.00012593
17 *1044:B *24:18 0
18 *3:26 *24:35 0
19 *23:51 *1043:A2 0.000555228
*RES
1 *1042:Y *24:8 41.1845 
2 *24:8 *24:14 44.2127 
3 *24:14 *24:18 20.3193 
4 *24:18 *1044:C 20 
5 *24:18 *24:35 45.8195 
6 *24:35 *1050:C 20 
7 *24:14 *1043:A2 43.3887 
*END

*D_NET *25 0.000366384
*CONN
*I *1093:A I *D sg13g2_dlygate4sd3_1
*I *1043:Y O *D sg13g2_o21ai_1
*CAP
1 *1093:A 0.000175491
2 *1043:Y 0.000175491
3 *1093:A *46:8 0
4 *1093:A *61:10 0
5 *1043:A1 *1093:A 1.54008e-05
*RES
1 *1043:Y *1093:A 41.8746 
*END

*D_NET *26 0.000201919
*CONN
*I *1046:A2 I *D sg13g2_a21oi_1
*I *1044:X O *D sg13g2_or3_1
*CAP
1 *1046:A2 0.00010096
2 *1044:X 0.00010096
3 *1046:A2 *1044:A 0
*RES
1 *1044:X *1046:A2 40.8514 
*END

*D_NET *27 0.0112223
*CONN
*I *1046:B1 I *D sg13g2_a21oi_1
*I *1069:B1 I *D sg13g2_a21oi_1
*I *1061:A I *D sg13g2_nor2_1
*I *1065:B1 I *D sg13g2_a21oi_1
*I *1058:A I *D sg13g2_nor2_1
*I *1056:A I *D sg13g2_nor2_1
*I *1053:A I *D sg13g2_nor2_1
*I *1048:B I *D sg13g2_nor2_1
*I *1045:Y O *D sg13g2_inv_1
*CAP
1 *1046:B1 0.000135241
2 *1069:B1 0
3 *1061:A 0
4 *1065:B1 0.000167249
5 *1058:A 0
6 *1056:A 0.00029667
7 *1053:A 0.000221269
8 *1048:B 0.000236703
9 *1045:Y 0.000184514
10 *27:57 0.00140609
11 *27:53 0.00110257
12 *27:51 0.000794061
13 *27:47 0.00142752
14 *27:33 0.00154296
15 *27:23 0.00100344
16 *27:10 0.000761586
17 *1048:B *1047:B 0
18 *1053:A *1070:CLK 0
19 *1053:A *48:8 0
20 *1053:A *48:18 0.000127825
21 *1056:A *48:18 0.000695126
22 *1065:B1 *1065:A1 1.53311e-05
23 *27:10 *1047:B 0.000112492
24 *27:33 *1069:A1 0
25 *27:33 *46:14 0.000449344
26 *27:47 *1042:C 0
27 *27:47 *1061:B 0.000208357
28 *27:47 *1076:RESET_B 0
29 *27:47 *57:14 0
30 *27:47 *77:53 0
31 *27:57 *1052:B 0.000175986
32 *27:57 *70:10 0
33 *1044:B *1046:B1 0
34 *1050:B *1046:B1 7.98406e-05
35 *1064:B *27:33 0
36 *1076:D *27:47 1.54008e-05
37 *1091:A *27:33 1.54008e-05
38 *3:26 *1046:B1 0
39 *3:26 *27:33 0
40 *3:45 *27:47 0
41 *23:34 *27:47 0
42 *24:8 *27:47 4.73245e-05
*RES
1 *1045:Y *27:10 42.0909 
2 *27:10 *1048:B 42.6986 
3 *27:10 *27:23 23.811 
4 *27:23 *27:33 45.3148 
5 *27:33 *27:47 30.1352 
6 *27:47 *27:51 25.047 
7 *27:51 *27:53 2.266 
8 *27:53 *27:57 29.4039 
9 *27:57 *1053:A 42.7501 
10 *27:57 *1056:A 44.1303 
11 *27:53 *1058:A 20 
12 *27:51 *1065:B1 21.8334 
13 *27:47 *1061:A 40 
14 *27:33 *1069:B1 20 
15 *27:23 *1046:B1 21.4214 
*END

*D_NET *28 0.000590349
*CONN
*I *1051:A0 I *D sg13g2_mux2_1
*I *1047:X O *D sg13g2_and2_1
*CAP
1 *1051:A0 0.000174018
2 *1047:X 0.000174018
3 *1051:A0 *1051:A1 0.000242313
4 *1104:A *1051:A0 0
*RES
1 *1047:X *1051:A0 41.9673 
*END

*D_NET *29 0.000763891
*CONN
*I *1051:A1 I *D sg13g2_mux2_1
*I *1048:Y O *D sg13g2_nor2_1
*CAP
1 *1051:A1 0.000236833
2 *1048:Y 0.000236833
3 *1051:A1 *1084:CLK 0
4 *1051:A0 *1051:A1 0.000242313
5 *1104:A *1051:A1 4.79124e-05
*RES
1 *1048:Y *1051:A1 42.9664 
*END

*D_NET *30 0.000140476
*CONN
*I *1050:A I *D sg13g2_nor3_2
*I *1049:Y O *D sg13g2_inv_1
*CAP
1 *1050:A 7.0238e-05
2 *1049:Y 7.0238e-05
*RES
1 *1049:Y *1050:A 40.8446 
*END

*D_NET *31 0.0013761
*CONN
*I *1051:S I *D sg13g2_mux2_1
*I *1050:Y O *D sg13g2_nor3_2
*CAP
1 *1051:S 0
2 *1050:Y 0.000560187
3 *31:10 0.000560187
4 *31:10 *73:10 0.000240327
5 *1050:B *31:10 1.54008e-05
6 *1094:A *31:10 0