*SPEF "ieee 1481-1999"
*DESIGN "counter_top"
*DATE "01:28:55 Tuesday May 12, 2026"
*VENDOR "The OpenROAD Project"
*PROGRAM "OpenROAD"
*VERSION "26Q1-1024-gdcf36133a"
*DESIGN_FLOW "NAME_SCOPE LOCAL" "PIN_CAP NONE"
*DIVIDER /
*DELIMITER :
*BUS_DELIMITER []
*T_UNIT 1 NS
*C_UNIT 1 PF
*R_UNIT 1 OHM
*L_UNIT 1 HENRY

*NAME_MAP
*3 clock_i
*4 counter_value_o[0]
*5 counter_value_o[1]
*6 counter_value_o[2]
*7 counter_value_o[3]
*8 counter_value_o[4]
*9 counter_value_o[5]
*10 counter_value_o[6]
*11 counter_value_o[7]
*12 enable_i
*13 reset_n_i
*14 _00_
*15 _01_
*16 _02_
*17 _03_
*18 _04_
*19 _05_
*20 _06_
*21 _07_
*22 _08_
*23 _09_
*24 _10_
*25 _11_
*26 _12_
*27 _13_
*28 _14_
*29 _15_
*30 _16_
*31 _17_
*32 _18_
*33 _19_
*34 _20_
*35 _21_
*36 _22_
*37 _23_
*38 _24_
*39 _25_
*40 _26_
*41 _27_
*42 _28_
*43 _29_
*44 clknet_0_clock_i
*45 clknet_1_0__leaf_clock_i
*46 clknet_1_1__leaf_clock_i
*47 net
*48 net1
*49 net10
*50 net11
*51 net12
*52 net13
*53 net14
*54 net15
*55 net16
*56 net17
*57 net18
*58 net19
*59 net2
*60 net20
*61 net21
*62 net22
*63 net23
*64 net24
*65 net25
*66 net26
*67 net27
*68 net28
*69 net29
*70 net3
*71 net30
*72 net31
*73 net32
*74 net33
*75 net4
*76 net5
*77 net6
*78 net7
*79 net8
*80 net9
*81 FILLER_0_0
*82 FILLER_0_105
*83 FILLER_0_112
*84 FILLER_0_119
*85 FILLER_0_126
*86 FILLER_0_133
*87 FILLER_0_14
*88 FILLER_0_140
*89 FILLER_0_147
*90 FILLER_0_154
*91 FILLER_0_161
*92 FILLER_0_168
*93 FILLER_0_175
*94 FILLER_0_182
*95 FILLER_0_189
*96 FILLER_0_196
*97 FILLER_0_203
*98 FILLER_0_21
*99 FILLER_0_210
*100 FILLER_0_217
*101 FILLER_0_224
*102 FILLER_0_231
*103 FILLER_0_238
*104 FILLER_0_245
*105 FILLER_0_252
*106 FILLER_0_259
*107 FILLER_0_266
*108 FILLER_0_273
*109 FILLER_0_28
*110 FILLER_0_280
*111 FILLER_0_287
*112 FILLER_0_294
*113 FILLER_0_301
*114 FILLER_0_308
*115 FILLER_0_315
*116 FILLER_0_322
*117 FILLER_0_329
*118 FILLER_0_336
*119 FILLER_0_343
*120 FILLER_0_35
*121 FILLER_0_350
*122 FILLER_0_357
*123 FILLER_0_364
*124 FILLER_0_371
*125 FILLER_0_378
*126 FILLER_0_385
*127 FILLER_0_42
*128 FILLER_0_49
*129 FILLER_0_56
*130 FILLER_0_63
*131 FILLER_0_7
*132 FILLER_0_70
*133 FILLER_0_77
*134 FILLER_0_84
*135 FILLER_0_91
*136 FILLER_0_98
*137 FILLER_10_0
*138 FILLER_10_105
*139 FILLER_10_112
*140 FILLER_10_119
*141 FILLER_10_126
*142 FILLER_10_133
*143 FILLER_10_14
*144 FILLER_10_140
*145 FILLER_10_147
*146 FILLER_10_154
*147 FILLER_10_161
*148 FILLER_10_168
*149 FILLER_10_175
*150 FILLER_10_182
*151 FILLER_10_189
*152 FILLER_10_196
*153 FILLER_10_203
*154 FILLER_10_21
*155 FILLER_10_210
*156 FILLER_10_217
*157 FILLER_10_224
*158 FILLER_10_231
*159 FILLER_10_238
*160 FILLER_10_245
*161 FILLER_10_252
*162 FILLER_10_259
*163 FILLER_10_266
*164 FILLER_10_273
*165 FILLER_10_28
*166 FILLER_10_280
*167 FILLER_10_287
*168 FILLER_10_294
*169 FILLER_10_301
*170 FILLER_10_308
*171 FILLER_10_315
*172 FILLER_10_322
*173 FILLER_10_329
*174 FILLER_10_336
*175 FILLER_10_343
*176 FILLER_10_35
*177 FILLER_10_350
*178 FILLER_10_357
*179 FILLER_10_364
*180 FILLER_10_371
*181 FILLER_10_378
*182 FILLER_10_385
*183 FILLER_10_42
*184 FILLER_10_49
*185 FILLER_10_56
*186 FILLER_10_63
*187 FILLER_10_7
*188 FILLER_10_70
*189 FILLER_10_77
*190 FILLER_10_84
*191 FILLER_10_91
*192 FILLER_10_98
*193 FILLER_11_0
*194 FILLER_11_105
*195 FILLER_11_112
*196 FILLER_11_119
*197 FILLER_11_126
*198 FILLER_11_133
*199 FILLER_11_14
*200 FILLER_11_140
*201 FILLER_11_147
*202 FILLER_11_154
*203 FILLER_11_161
*204 FILLER_11_168
*205 FILLER_11_175
*206 FILLER_11_182
*207 FILLER_11_189
*208 FILLER_11_196
*209 FILLER_11_203
*210 FILLER_11_21
*211 FILLER_11_210
*212 FILLER_11_217
*213 FILLER_11_224
*214 FILLER_11_231
*215 FILLER_11_238
*216 FILLER_11_245
*217 FILLER_11_252
*218 FILLER_11_259
*219 FILLER_11_266
*220 FILLER_11_273
*221 FILLER_11_28
*222 FILLER_11_280
*223 FILLER_11_287
*224 FILLER_11_294
*225 FILLER_11_301
*226 FILLER_11_308
*227 FILLER_11_315
*228 FILLER_11_322
*229 FILLER_11_329
*230 FILLER_11_336
*231 FILLER_11_343
*232 FILLER_11_35
*233 FILLER_11_350
*234 FILLER_11_357
*235 FILLER_11_364
*236 FILLER_11_371
*237 FILLER_11_378
*238 FILLER_11_385
*239 FILLER_11_42
*240 FILLER_11_49
*241 FILLER_11_56
*242 FILLER_11_63
*243 FILLER_11_7
*244 FILLER_11_70
*245 FILLER_11_77
*246 FILLER_11_84
*247 FILLER_11_91
*248 FILLER_11_98
*249 FILLER_12_0
*250 FILLER_12_105
*251 FILLER_12_112
*252 FILLER_12_119
*253 FILLER_12_126
*254 FILLER_12_133
*255 FILLER_12_14
*256 FILLER_12_140
*257 FILLER_12_147
*258 FILLER_12_154
*259 FILLER_12_161
*260 FILLER_12_168
*261 FILLER_12_175
*262 FILLER_12_182
*263 FILLER_12_189
*264 FILLER_12_196
*265 FILLER_12_203
*266 FILLER_12_21
*267 FILLER_12_210
*268 FILLER_12_217
*269 FILLER_12_224
*270 FILLER_12_231
*271 FILLER_12_238
*272 FILLER_12_245
*273 FILLER_12_252
*274 FILLER_12_259
*275 FILLER_12_266
*276 FILLER_12_273
*277 FILLER_12_28
*278 FILLER_12_280
*279 FILLER_12_287
*280 FILLER_12_294
*281 FILLER_12_301
*282 FILLER_12_308
*283 FILLER_12_315
*284 FILLER_12_322
*285 FILLER_12_329
*286 FILLER_12_336
*287 FILLER_12_343
*288 FILLER_12_35
*289 FILLER_12_350
*290 FILLER_12_357
*291 FILLER_12_364
*292 FILLER_12_371
*293 FILLER_12_378
*294 FILLER_12_385
*295 FILLER_12_42
*296 FILLER_12_49
*297 FILLER_12_56
*298 FILLER_12_63
*299 FILLER_12_7
*300 FILLER_12_70
*301 FILLER_12_77
*302 FILLER_12_84
*303 FILLER_12_91
*304 FILLER_12_98
*305 FILLER_13_0
*306 FILLER_13_102
*307 FILLER_13_109
*308 FILLER_13_116
*309 FILLER_13_123
*310 FILLER_13_130
*311 FILLER_13_137
*312 FILLER_13_14
*313 FILLER_13_144
*314 FILLER_13_151
*315 FILLER_13_158
*316 FILLER_13_169
*317 FILLER_13_176
*318 FILLER_13_183
*319 FILLER_13_190
*320 FILLER_13_197
*321 FILLER_13_204
*322 FILLER_13_21
*323 FILLER_13_224
*324 FILLER_13_231
*325 FILLER_13_235
*326 FILLER_13_249
*327 FILLER_13_256
*328 FILLER_13_263
*329 FILLER_13_270
*330 FILLER_13_277
*331 FILLER_13_28
*332 FILLER_13_284
*333 FILLER_13_291
*334 FILLER_13_298
*335 FILLER_13_305
*336 FILLER_13_312
*337 FILLER_13_319
*338 FILLER_13_326
*339 FILLER_13_333
*340 FILLER_13_340
*341 FILLER_13_347
*342 FILLER_13_35
*343 FILLER_13_354
*344 FILLER_13_361
*345 FILLER_13_368
*346 FILLER_13_375
*347 FILLER_13_382
*348 FILLER_13_389
*349 FILLER_13_391
*350 FILLER_13_42
*351 FILLER_13_49
*352 FILLER_13_56
*353 FILLER_13_67
*354 FILLER_13_7
*355 FILLER_13_74
*356 FILLER_13_81
*357 FILLER_13_88
*358 FILLER_13_95
*359 FILLER_14_0
*360 FILLER_14_105
*361 FILLER_14_14
*362 FILLER_14_141
*363 FILLER_14_148
*364 FILLER_14_155
*365 FILLER_14_159
*366 FILLER_14_186
*367 FILLER_14_193
*368 FILLER_14_21
*369 FILLER_14_211
*370 FILLER_14_213
*371 FILLER_14_230
*372 FILLER_14_259
*373 FILLER_14_266
*374 FILLER_14_273
*375 FILLER_14_28
*376 FILLER_14_280
*377 FILLER_14_287
*378 FILLER_14_294
*379 FILLER_14_301
*380 FILLER_14_308
*381 FILLER_14_315
*382 FILLER_14_322
*383 FILLER_14_329
*384 FILLER_14_336
*385 FILLER_14_343
*386 FILLER_14_35
*387 FILLER_14_350
*388 FILLER_14_357
*389 FILLER_14_364
*390 FILLER_14_371
*391 FILLER_14_378
*392 FILLER_14_385
*393 FILLER_14_42
*394 FILLER_14_49
*395 FILLER_14_56
*396 FILLER_14_7
*397 FILLER_14_85
*398 FILLER_14_92
*399 FILLER_14_98
*400 FILLER_15_0
*401 FILLER_15_14
*402 FILLER_15_150
*403 FILLER_15_183
*404 FILLER_15_190
*405 FILLER_15_21
*406 FILLER_15_225
*407 FILLER_15_263
*408 FILLER_15_270
*409 FILLER_15_277
*410 FILLER_15_28
*411 FILLER_15_284
*412 FILLER_15_291
*413 FILLER_15_298
*414 FILLER_15_305
*415 FILLER_15_312
*416 FILLER_15_319
*417 FILLER_15_326
*418 FILLER_15_333
*419 FILLER_15_340
*420 FILLER_15_347
*421 FILLER_15_35
*422 FILLER_15_354
*423 FILLER_15_361
*424 FILLER_15_368
*425 FILLER_15_375
*426 FILLER_15_382
*427 FILLER_15_389
*428 FILLER_15_391
*429 FILLER_15_42
*430 FILLER_15_61
*431 FILLER_15_7
*432 FILLER_15_90
*433 FILLER_16_0
*434 FILLER_16_103
*435 FILLER_16_105
*436 FILLER_16_123
*437 FILLER_16_14
*438 FILLER_16_149
*439 FILLER_16_182
*440 FILLER_16_197
*441 FILLER_16_21
*442 FILLER_16_210
*443 FILLER_16_232
*444 FILLER_16_234
*445 FILLER_16_262
*446 FILLER_16_269
*447 FILLER_16_276
*448 FILLER_16_28
*449 FILLER_16_283
*450 FILLER_16_290
*451 FILLER_16_297
*452 FILLER_16_304
*453 FILLER_16_311
*454 FILLER_16_318
*455 FILLER_16_325
*456 FILLER_16_332
*457 FILLER_16_339
*458 FILLER_16_346
*459 FILLER_16_35
*460 FILLER_16_353
*461 FILLER_16_360
*462 FILLER_16_367
*463 FILLER_16_374
*464 FILLER_16_381
*465 FILLER_16_388
*466 FILLER_16_42
*467 FILLER_16_49
*468 FILLER_16_7
*469 FILLER_16_89
*470 FILLER_16_96
*471 FILLER_17_0
*472 FILLER_17_100
*473 FILLER_17_107
*474 FILLER_17_11
*475 FILLER_17_114
*476 FILLER_17_123
*477 FILLER_17_127
*478 FILLER_17_141
*479 FILLER_17_148
*480 FILLER_17_155
*481 FILLER_17_157
*482 FILLER_17_162
*483 FILLER_17_166
*484 FILLER_17_17
*485 FILLER_17_175
*486 FILLER_17_182
*487 FILLER_17_189
*488 FILLER_17_196
*489 FILLER_17_198
*490 FILLER_17_204
*491 FILLER_17_214
*492 FILLER_17_218
*493 FILLER_17_24
*494 FILLER_17_245
*495 FILLER_17_252
*496 FILLER_17_259
*497 FILLER_17_266
*498 FILLER_17_277
*499 FILLER_17_284
*500 FILLER_17_291
*501 FILLER_17_298
*502 FILLER_17_305
*503 FILLER_17_31
*504 FILLER_17_312
*505 FILLER_17_319
*506 FILLER_17_323
*507 FILLER_17_329
*508 FILLER_17_336
*509 FILLER_17_343
*510 FILLER_17_350
*511 FILLER_17_357
*512 FILLER_17_364
*513 FILLER_17_371
*514 FILLER_17_375
*515 FILLER_17_38
*516 FILLER_17_381
*517 FILLER_17_388
*518 FILLER_17_45
*519 FILLER_17_52
*520 FILLER_17_59
*521 FILLER_17_7
*522 FILLER_17_72
*523 FILLER_17_79
*524 FILLER_17_86
*525 FILLER_17_93
*526 FILLER_1_102
*527 FILLER_1_109
*528 FILLER_1_11
*529 FILLER_1_116
*530 FILLER_1_123
*531 FILLER_1_130
*532 FILLER_1_137
*533 FILLER_1_144
*534 FILLER_1_151
*535 FILLER_1_158
*536 FILLER_1_165
*537 FILLER_1_172
*538 FILLER_1_179
*539 FILLER_1_18
*540 FILLER_1_186
*541 FILLER_1_193
*542 FILLER_1_200
*543 FILLER_1_207
*544 FILLER_1_214
*545 FILLER_1_221
*546 FILLER_1_228
*547 FILLER_1_235
*548 FILLER_1_242
*549 FILLER_1_249
*550 FILLER_1_25
*551 FILLER_1_256
*552 FILLER_1_263
*553 FILLER_1_270
*554 FILLER_1_277
*555 FILLER_1_284
*556 FILLER_1_291
*557 FILLER_1_298
*558 FILLER_1_305
*559 FILLER_1_312
*560 FILLER_1_319
*561 FILLER_1_32
*562 FILLER_1_326
*563 FILLER_1_333
*564 FILLER_1_340
*565 FILLER_1_347
*566 FILLER_1_354
*567 FILLER_1_361
*568 FILLER_1_368
*569 FILLER_1_375
*570 FILLER_1_382
*571 FILLER_1_389
*572 FILLER_1_39
*573 FILLER_1_391
*574 FILLER_1_4
*575 FILLER_1_46
*576 FILLER_1_53
*577 FILLER_1_60
*578 FILLER_1_67
*579 FILLER_1_74
*580 FILLER_1_81
*581 FILLER_1_88
*582 FILLER_1_95
*583 FILLER_2_0
*584 FILLER_2_105
*585 FILLER_2_112
*586 FILLER_2_119
*587 FILLER_2_126
*588 FILLER_2_133
*589 FILLER_2_14
*590 FILLER_2_140
*591 FILLER_2_147
*592 FILLER_2_154
*593 FILLER_2_161
*594 FILLER_2_168
*595 FILLER_2_175
*596 FILLER_2_182
*597 FILLER_2_189
*598 FILLER_2_196
*599 FILLER_2_203
*600 FILLER_2_21
*601 FILLER_2_210
*602 FILLER_2_217
*603 FILLER_2_224
*604 FILLER_2_231
*605 FILLER_2_238
*606 FILLER_2_245
*607 FILLER_2_252
*608 FILLER_2_259
*609 FILLER_2_266
*610 FILLER_2_273
*611 FILLER_2_28
*612 FILLER_2_280
*613 FILLER_2_287
*614 FILLER_2_294
*615 FILLER_2_301
*616 FILLER_2_308
*617 FILLER_2_315
*618 FILLER_2_322
*619 FILLER_2_329
*620 FILLER_2_336
*621 FILLER_2_343
*622 FILLER_2_35
*623 FILLER_2_350
*624 FILLER_2_357
*625 FILLER_2_364
*626 FILLER_2_371
*627 FILLER_2_378
*628 FILLER_2_385
*629 FILLER_2_42
*630 FILLER_2_49
*631 FILLER_2_56
*632 FILLER_2_63
*633 FILLER_2_7
*634 FILLER_2_70
*635 FILLER_2_77
*636 FILLER_2_84
*637 FILLER_2_91
*638 FILLER_2_98
*639 FILLER_3_0
*640 FILLER_3_105
*641 FILLER_3_112
*642 FILLER_3_119
*643 FILLER_3_126
*644 FILLER_3_133
*645 FILLER_3_14
*646 FILLER_3_140
*647 FILLER_3_147
*648 FILLER_3_154
*649 FILLER_3_161
*650 FILLER_3_168
*651 FILLER_3_175
*652 FILLER_3_182
*653 FILLER_3_189
*654 FILLER_3_196
*655 FILLER_3_203
*656 FILLER_3_21
*657 FILLER_3_210
*658 FILLER_3_217
*659 FILLER_3_224
*660 FILLER_3_231
*661 FILLER_3_238
*662 FILLER_3_245
*663 FILLER_3_252
*664 FILLER_3_259
*665 FILLER_3_266
*666 FILLER_3_273
*667 FILLER_3_28
*668 FILLER_3_280
*669 FILLER_3_287
*670 FILLER_3_294
*671 FILLER_3_301
*672 FILLER_3_308
*673 FILLER_3_315
*674 FILLER_3_322
*675 FILLER_3_329
*676 FILLER_3_336
*677 FILLER_3_343
*678 FILLER_3_35
*679 FILLER_3_350
*680 FILLER_3_357
*681 FILLER_3_364
*682 FILLER_3_371
*683 FILLER_3_378
*684 FILLER_3_385
*685 FILLER_3_42
*686 FILLER_3_49
*687 FILLER_3_56
*688 FILLER_3_63
*689 FILLER_3_7
*690 FILLER_3_70
*691 FILLER_3_77
*692 FILLER_3_84
*693 FILLER_3_91
*694 FILLER_3_98
*695 FILLER_4_0
*696 FILLER_4_105
*697 FILLER_4_112
*698 FILLER_4_119
*699 FILLER_4_126
*700 FILLER_4_133
*701 FILLER_4_14
*702 FILLER_4_140
*703 FILLER_4_147
*704 FILLER_4_154
*705 FILLER_4_161
*706 FILLER_4_168
*707 FILLER_4_175
*708 FILLER_4_182
*709 FILLER_4_189
*710 FILLER_4_196
*711 FILLER_4_203
*712 FILLER_4_21
*713 FILLER_4_210
*714 FILLER_4_217
*715 FILLER_4_224
*716 FILLER_4_231
*717 FILLER_4_238
*718 FILLER_4_245
*719 FILLER_4_252
*720 FILLER_4_259
*721 FILLER_4_266
*722 FILLER_4_273
*723 FILLER_4_28
*724 FILLER_4_280
*725 FILLER_4_287
*726 FILLER_4_294
*727 FILLER_4_301
*728 FILLER_4_308
*729 FILLER_4_315
*730 FILLER_4_322
*731 FILLER_4_329
*732 FILLER_4_336
*733 FILLER_4_343
*734 FILLER_4_35
*735 FILLER_4_350
*736 FILLER_4_357
*737 FILLER_4_364
*738 FILLER_4_371
*739 FILLER_4_378
*740 FILLER_4_385
*741 FILLER_4_42
*742 FILLER_4_49
*743 FILLER_4_56
*744 FILLER_4_63
*745 FILLER_4_7
*746 FILLER_4_70
*747 FILLER_4_77
*748 FILLER_4_84
*749 FILLER_4_91
*750 FILLER_4_98
*751 FILLER_5_0
*752 FILLER_5_105
*753 FILLER_5_112
*754 FILLER_5_119
*755 FILLER_5_126
*756 FILLER_5_133
*757 FILLER_5_14
*758 FILLER_5_140
*759 FILLER_5_147
*760 FILLER_5_154
*761 FILLER_5_161
*762 FILLER_5_168
*763 FILLER_5_175
*764 FILLER_5_182
*765 FILLER_5_189
*766 FILLER_5_196
*767 FILLER_5_203
*768 FILLER_5_21
*769 FILLER_5_210
*770 FILLER_5_217
*771 FILLER_5_224
*772 FILLER_5_231
*773 FILLER_5_238
*774 FILLER_5_245
*775 FILLER_5_252
*776 FILLER_5_259
*777 FILLER_5_266
*778 FILLER_5_273
*779 FILLER_5_28
*780 FILLER_5_280
*781 FILLER_5_287
*782 FILLER_5_294
*783 FILLER_5_301
*784 FILLER_5_308
*785 FILLER_5_315
*786 FILLER_5_322
*787 FILLER_5_329
*788 FILLER_5_336
*789 FILLER_5_343
*790 FILLER_5_35
*791 FILLER_5_350
*792 FILLER_5_357
*793 FILLER_5_364
*794 FILLER_5_371
*795 FILLER_5_378
*796 FILLER_5_385
*797 FILLER_5_42
*798 FILLER_5_49
*799 FILLER_5_56
*800 FILLER_5_63
*801 FILLER_5_7
*802 FILLER_5_70
*803 FILLER_5_77
*804 FILLER_5_84
*805 FILLER_5_91
*806 FILLER_5_98
*807 FILLER_6_0
*808 FILLER_6_105
*809 FILLER_6_112
*810 FILLER_6_119
*811 FILLER_6_126
*812 FILLER_6_133
*813 FILLER_6_14
*814 FILLER_6_140
*815 FILLER_6_147
*816 FILLER_6_154
*817 FILLER_6_161
*818 FILLER_6_168
*819 FILLER_6_175
*820 FILLER_6_182
*821 FILLER_6_189
*822 FILLER_6_196
*823 FILLER_6_203
*824 FILLER_6_21
*825 FILLER_6_210
*826 FILLER_6_217
*827 FILLER_6_224
*828 FILLER_6_231
*829 FILLER_6_238
*830 FILLER_6_245
*831 FILLER_6_252
*832 FILLER_6_259
*833 FILLER_6_266
*834 FILLER_6_273
*835 FILLER_6_28
*836 FILLER_6_280
*837 FILLER_6_287
*838 FILLER_6_294
*839 FILLER_6_301
*840 FILLER_6_308
*841 FILLER_6_315
*842 FILLER_6_322
*843 FILLER_6_329
*844 FILLER_6_336
*845 FILLER_6_343
*846 FILLER_6_35
*847 FILLER_6_350
*848 FILLER_6_357
*849 FILLER_6_364
*850 FILLER_6_371
*851 FILLER_6_378
*852 FILLER_6_385
*853 FILLER_6_42
*854 FILLER_6_49
*855 FILLER_6_56
*856 FILLER_6_63
*857 FILLER_6_7
*858 FILLER_6_70
*859 FILLER_6_77
*860 FILLER_6_84
*861 FILLER_6_91
*862 FILLER_6_98
*863 FILLER_7_0
*864 FILLER_7_105
*865 FILLER_7_112
*866 FILLER_7_119
*867 FILLER_7_126
*868 FILLER_7_133
*869 FILLER_7_14
*870 FILLER_7_140
*871 FILLER_7_147
*872 FILLER_7_154
*873 FILLER_7_161
*874 FILLER_7_168
*875 FILLER_7_175
*876 FILLER_7_182
*877 FILLER_7_189
*878 FILLER_7_196
*879 FILLER_7_203
*880 FILLER_7_21
*881 FILLER_7_210
*882 FILLER_7_217
*883 FILLER_7_224
*884 FILLER_7_231
*885 FILLER_7_238
*886 FILLER_7_245
*887 FILLER_7_252
*888 FILLER_7_259
*889 FILLER_7_266
*890 FILLER_7_273
*891 FILLER_7_28
*892 FILLER_7_280
*893 FILLER_7_287
*894 FILLER_7_294
*895 FILLER_7_301
*896 FILLER_7_308
*897 FILLER_7_315
*898 FILLER_7_322
*899 FILLER_7_329
*900 FILLER_7_336
*901 FILLER_7_343
*902 FILLER_7_35
*903 FILLER_7_350
*904 FILLER_7_357
*905 FILLER_7_364
*906 FILLER_7_371
*907 FILLER_7_378
*908 FILLER_7_385
*909 FILLER_7_42
*910 FILLER_7_49
*911 FILLER_7_56
*912 FILLER_7_63
*913 FILLER_7_7
*914 FILLER_7_70
*915 FILLER_7_77
*916 FILLER_7_84
*917 FILLER_7_91
*918 FILLER_7_98
*919 FILLER_8_0
*920 FILLER_8_105
*921 FILLER_8_112
*922 FILLER_8_119
*923 FILLER_8_126
*924 FILLER_8_133
*925 FILLER_8_14
*926 FILLER_8_140
*927 FILLER_8_147
*928 FILLER_8_154
*929 FILLER_8_161
*930 FILLER_8_168
*931 FILLER_8_175
*932 FILLER_8_182
*933 FILLER_8_189
*934 FILLER_8_196
*935 FILLER_8_203
*936 FILLER_8_21
*937 FILLER_8_210
*938 FILLER_8_217
*939 FILLER_8_224
*940 FILLER_8_231
*941 FILLER_8_238
*942 FILLER_8_245
*943 FILLER_8_252
*944 FILLER_8_259
*945 FILLER_8_266
*946 FILLER_8_273
*947 FILLER_8_28
*948 FILLER_8_280
*949 FILLER_8_287
*950 FILLER_8_294
*951 FILLER_8_301
*952 FILLER_8_308
*953 FILLER_8_315
*954 FILLER_8_322
*955 FILLER_8_329
*956 FILLER_8_336
*957 FILLER_8_343
*958 FILLER_8_35
*959 FILLER_8_350
*960 FILLER_8_357
*961 FILLER_8_364
*962 FILLER_8_371
*963 FILLER_8_378
*964 FILLER_8_385
*965 FILLER_8_42
*966 FILLER_8_49
*967 FILLER_8_56
*968 FILLER_8_63
*969 FILLER_8_7
*970 FILLER_8_70
*971 FILLER_8_77
*972 FILLER_8_84
*973 FILLER_8_91
*974 FILLER_8_98
*975 FILLER_9_102
*976 FILLER_9_109
*977 FILLER_9_11
*978 FILLER_9_116
*979 FILLER_9_123
*980 FILLER_9_130
*981 FILLER_9_137
*982 FILLER_9_144
*983 FILLER_9_151
*984 FILLER_9_158
*985 FILLER_9_165
*986 FILLER_9_172
*987 FILLER_9_179
*988 FILLER_9_18
*989 FILLER_9_186
*990 FILLER_9_193
*991 FILLER_9_200
*992 FILLER_9_207
*993 FILLER_9_214
*994 FILLER_9_221
*995 FILLER_9_228
*996 FILLER_9_235
*997 FILLER_9_242
*998 FILLER_9_249
*999 FILLER_9_25
*1000 FILLER_9_256
*1001 FILLER_9_263
*1002 FILLER_9_270
*1003 FILLER_9_277
*1004 FILLER_9_284
*1005 FILLER_9_291
*1006 FILLER_9_298
*1007 FILLER_9_305
*1008 FILLER_9_312
*1009 FILLER_9_319
*1010 FILLER_9_32
*1011 FILLER_9_326
*1012 FILLER_9_333
*1013 FILLER_9_340
*1014 FILLER_9_347
*1015 FILLER_9_354
*1016 FILLER_9_361
*1017 FILLER_9_368
*1018 FILLER_9_375
*1019 FILLER_9_382
*1020 FILLER_9_389
*1021 FILLER_9_39
*1022 FILLER_9_391
*1023 FILLER_9_4
*1024 FILLER_9_46
*1025 FILLER_9_53
*1026 FILLER_9_60
*1027 FILLER_9_67
*1028 FILLER_9_74
*1029 FILLER_9_81
*1030 FILLER_9_88
*1031 FILLER_9_95
*1032 _38_
*1033 _39_
*1034 _40_
*1035 _41_
*1036 _42_
*1037 _43_
*1038 _44_
*1039 _45_
*1040 _46_
*1041 _47_
*1042 _48_
*1043 _49_
*1044 _50_
*1045 _51_
*1046 _52_
*1047 _53_
*1048 _54_
*1049 _55_
*1050 _56_
*1051 _57_
*1052 _58_
*1053 _59_
*1054 _60_
*1055 _61_
*1056 _62_
*1057 _63_
*1058 _64_
*1059 _65_
*1060 _66_
*1061 _67_
*1062 _68_
*1063 _68__12
*1064 _69_
*1065 _69__18
*1066 _70_
*1067 _70__16
*1068 _71_
*1069 _71__13
*1070 _72_
*1071 _72__17
*1072 _73_
*1073 _73__11
*1074 _74_
*1075 _74__15
*1076 _75_
*1077 _75__14
*1078 clkbuf_0_clock_i
*1079 clkbuf_1_0__f_clock_i
*1080 clkbuf_1_1__f_clock_i
*1081 hold19
*1082 hold20
*1083 hold21
*1084 hold22
*1085 hold23
*1086 hold24
*1087 hold25
*1088 hold26
*1089 hold27
*1090 hold28
*1091 hold29
*1092 hold30
*1093 hold31
*1094 hold32
*1095 hold33
*1096 hold34
*1097 input1
*1098 input2
*1099 output10
*1100 output3
*1101 output4
*1102 output5
*1103 output6
*1104 output7
*1105 output8
*1106 output9

*PORTS
clock_i I
counter_value_o[0] O
counter_value_o[1] O
counter_value_o[2] O
counter_value_o[3] O
counter_value_o[4] O
counter_value_o[5] O
counter_value_o[6] O
counter_value_o[7] O
enable_i I
reset_n_i I

*D_NET *3 0.00890328
*CONN
*P clock_i I
*I *1078:A I *D sg13g2_buf_16
*CAP
1 clock_i 0.00370468
2 *1078:A 0.000746954
3 *3:10 0.00445164
4 *1078:A *1054:A 0
5 *1078:A *1055:B1 0
6 *1078:A *1056:A 0
7 *1078:A *1057:A2 0
8 *1078:A *1070:RESET_B 0
9 *3:10 *1051:B 0
10 *3:10 *27:36 0
11 *3:10 *33:10 0
12 *3:10 *67:14 0
13 *3:10 *67:38 0
14 *3:10 *73:25 0
15 *3:10 *76:16 0
16 *3:10 *76:51 0
*RES
1 clock_i *3:10 43.6308 
2 *3:10 *1078:A 46.695 
*END

*D_NET *4 0.00154285
*CONN
*P counter_value_o[0] O
*I *1100:X O *D sg13g2_buf_1
*CAP
1 counter_value_o[0] 0.000771425
2 *1100:X 0.000771425
*RES
1 *1100:X counter_value_o[0] 29.4039 
*END

*D_NET *5 0.00158506
*CONN
*P counter_value_o[1] O
*I *1101:X O *D sg13g2_buf_1
*CAP
1 counter_value_o[1] 0.00079253
2 *1101:X 0.00079253
*RES
1 *1101:X counter_value_o[1] 29.7541 
*END

*D_NET *6 0.00162187
*CONN
*P counter_value_o[2] O
*I *1102:X O *D sg13g2_buf_1
*CAP
1 counter_value_o[2] 0.000810937
2 *1102:X 0.000810937
*RES
1 *1102:X counter_value_o[2] 30.0013 
*END

*D_NET *7 0.00164669
*CONN
*P counter_value_o[3] O
*I *1103:X O *D sg13g2_buf_1
*CAP
1 counter_value_o[3] 0.000823346
2 *1103:X 0.000823346
*RES
1 *1103:X counter_value_o[3] 30.4751 
*END

*D_NET *8 0.00152358
*CONN
*P counter_value_o[4] O
*I *1104:X O *D sg13g2_buf_1
*CAP
1 counter_value_o[4] 0.000761791
2 *1104:X 0.000761791
*RES
1 *1104:X counter_value_o[4] 29.4039 
*END

*D_NET *9 0.00162609
*CONN
*P counter_value_o[5] O
*I *1105:X O *D sg13g2_buf_1
*CAP
1 counter_value_o[5] 0.000813046
2 *1105:X 0.000813046
*RES
1 *1105:X counter_value_o[5] 30.1043 
*END

*D_NET *10 0.00152358
*CONN
*P counter_value_o[6] O
*I *1106:X O *D sg13g2_buf_1
*CAP
1 counter_value_o[6] 0.000761791
2 *1106:X 0.000761791
*RES
1 *1106:X counter_value_o[6] 29.4039 
*END

*D_NET *11 0.00152358
*CONN
*P counter_value_o[7] O
*I *1099:X O *D sg13g2_buf_1
*CAP
1 counter_value_o[7] 0.000761791
2 *1099:X 0.000761791
*RES
1 *1099:X counter_value_o[7] 29.4039 
*END

*D_NET *12 0.000834467
*CONN
*P enable_i I
*I *1097:A I *D sg13g2_buf_1
*CAP
1 enable_i 0.000417234
2 *1097:A 0.000417234
*RES
1 enable_i *1097:A 44.9955 
*END

*D_NET *13 0.000590842
*CONN
*P reset_n_i I
*I *1098:A I *D sg13g2_buf_1
*CAP
1 reset_n_i 0.000295421
2 *1098:A 0.000295421
*RES
1 reset_n_i *1098:A 43.6977 
*END

*D_NET *14 0.00132139
*CONN
*I *1089:A I *D sg13g2_dlygate4sd3_1
*I *1038:Y O *D sg13g2_a21oi_1
*CAP
1 *1089:A 0
2 *1038:Y 0.000411542
3 *14:10 0.000411542
4 *14:10 *1081:A 0
5 *14:10 *1104:A 0.000209713
6 *14:10 *26:10 0
7 *14:10 *57:8 0.000288588
*RES
1 *1038:Y *14:10 45.1809 
2 *14:10 *1089:A 40 
*END

*D_NET *15 0.00101505
*CONN
*I *1076:D I *D sg13g2_dfrbpq_1
*I *1043:X O *D sg13g2_mux2_1
*CAP
1 *1076:D 0.000201616
2 *1043:X 0.000305909
3 *15:8 0.000507525
4 *1076:D *1040:A 0
5 *1076:D *1076:RESET_B 0
6 *15:8 *1039:A 0
7 *15:8 *74:8 0
*RES
1 *1043:X *15:8 43.5638 
2 *15:8 *1076:D 42.0497 
*END

*D_NET *16 0.00165317
*CONN
*I *1062:D I *D sg13g2_dfrbpq_1
*I *1045:Y O *D sg13g2_nor2_1
*CAP
1 *1062:D 0.000260577
2 *1045:Y 0.000215836
3 *16:10 0.000476412
4 *1062:D *1062:RESET_B 0
5 *1062:D *48:16 0
6 *1062:D *68:12 0.000144768
7 *16:10 *1045:A 1.54556e-05
8 *16:10 *1045:B 0.000145053
9 *16:10 *1048:A 0
10 *16:10 *17:8 0.000395067
11 *16:10 *70:14 0
12 *16:10 *70:20 0
*RES
1 *1045:Y *16:10 42.8016 
2 *16:10 *1062:D 42.6986 
*END

*D_NET *17 0.00117948
*CONN
*I *1064:D I *D sg13g2_dfrbpq_1
*I *1048:Y O *D sg13g2_nor2_1
*CAP
1 *1064:D 0
2 *1048:Y 0.000221394
3 *17:8 0.000221394
4 *17:8 *1044:B 0.00034162
5 *17:8 *68:12 0
6 *17:8 *70:14 0
7 *17:8 *70:20 0
8 *16:10 *17:8 0.000395067
*RES
1 *1048:Y *17:8 43.3166 
2 *17:8 *1064:D 40 
*END

*D_NET *18 0.000424701
*CONN
*I *1066:D I *D sg13g2_dfrbpq_1
*I *1050:Y O *D sg13g2_nor2_1
*CAP
1 *1066:D 0.00021235
2 *1050:Y 0.00021235
3 *1066:D *1050:B 0
4 *1066:D *45:8 0
*RES
1 *1050:Y *1066:D 42.0291 
*END

*D_NET *19 0.00151924
*CONN
*I *1068:D I *D sg13g2_dfrbpq_1
*I *1053:Y O *D sg13g2_nor2_1
*CAP
1 *1068:D 0.000485851
2 *1053:Y 0.000485851
3 *1068:D *1052:A 0.000467835
4 *1068:D *1053:B 0
5 *1068:D *1068:RESET_B 0
6 *1068:D *1094:A 0
7 *1068:D *71:8 7.97045e-05
8 *1068:D *73:16 0
*RES
1 *1053:Y *1068:D 45.5002 
*END

*D_NET *20 0.000543926
*CONN
*I *1086:A I *D sg13g2_dlygate4sd3_1
*I *1057:Y O *D sg13g2_a21oi_1
*CAP
1 *1086:A 0.000199808
2 *1057:Y 0.000199808
3 *1086:A *1057:A1 0
4 *1086:A *27:28 0.000144311
*RES
1 *1057:Y *1086:A 41.9982 
*END

*D_NET *21 0.00091337
*CONN
*I *1083:A I *D sg13g2_dlygate4sd3_1
*I *1061:Y O *D sg13g2_a21oi_1
*CAP
1 *1083:A 5.62994e-05
2 *1061:Y 0.000400386
3 *21:8 0.000456685
4 *1083:A *1038:A1 0
5 *21:8 *1104:A 0
6 *21:8 *26:10 0
7 *21:8 *57:8 0
*RES
1 *1061:Y *21:8 43.811 
2 *21:8 *1083:A 40.5356 
*END

*D_NET *22 0.000679386
*CONN
*I *1033:A I *D sg13g2_buf_4
*I *1032:Y O *D sg13g2_nand3_1
*CAP
1 *1033:A 0.000227204
2 *1032:Y 0.000227204
3 *1033:A *1032:B 0
4 *1033:A *1032:A 0.000177207
5 *1033:A *1051:A 4.77702e-05
6 *1033:A *23:10 0
*RES
1 *1032:Y *1033:A 42.4617 
*END

*D_NET *23 0.012339
*CONN
*I *1055:A1 I *D sg13g2_o21ai_1
*I *1035:A1 I *D sg13g2_o21ai_1
*I *1036:B I *D sg13g2_or3_1
*I *1042:B I *D sg13g2_nor3_2
*I *1060:B I *D sg13g2_or3_1
*I *1059:A1 I *D sg13g2_o21ai_1
*I *1056:B I *D sg13g2_or3_1
*I *1049:B I *D sg13g2_xor2_1
*I *1033:X O *D sg13g2_buf_4
*CAP
1 *1055:A1 0.000298884
2 *1035:A1 0
3 *1036:B 0.000491396
4 *1042:B 5.36187e-05
5 *1060:B 4.07091e-05
6 *1059:A1 0.000381611
7 *1056:B 0.000183427
8 *1049:B 3.62964e-05
9 *1033:X 0.000178907
10 *23:56 0.000870791
11 *23:44 0.000543473
12 *23:40 0.000686044
13 *23:36 0.000798086
14 *23:25 0.00107531
15 *23:21 0.00168376
16 *23:10 0.00135302
17 *1036:B *1036:A 1.54008e-05
18 *1036:B *1039:A 0
19 *1036:B *25:8 0.000555308
20 *1036:B *64:23 0
21 *1036:B *74:8 0
22 *1049:B *1052:A 0
23 *1049:B *73:16 0
24 *1055:A1 *1056:C 0.000208994
25 *1055:A1 *27:14 0
26 *1055:A1 *38:8 1.54008e-05
27 *1055:A1 *44:35 0
28 *1055:A1 *46:10 0.000129163
29 *1055:A1 *71:25 0
30 *1056:B *1056:A 0.000274769
31 *1056:B *1056:C 0
32 *1059:A1 *1034:D 0
33 *1059:A1 *1059:A2 0
34 *1059:A1 *1060:C 8.00842e-05
35 *1060:B *57:22 4.77425e-05
36 *23:10 *1051:A 0
37 *23:10 *36:8 0
38 *23:10 *37:10 0
39 *23:10 *73:16 0
40 *23:21 *27:14 0
41 *23:21 *35:8 0.00044727
42 *23:21 *37:10 0
43 *23:21 *45:10 0
44 *23:21 *71:25 0
45 *23:21 *77:12 0.000981324
46 *23:25 *1056:A 0.00035641
47 *23:25 *1056:C 0
48 *23:36 *27:14 0
49 *23:40 *25:8 0.000236294
50 *23:44 *1042:A 4.77425e-05
51 *23:44 *27:8 0
52 *23:56 *1042:A 0.000192926
53 *23:56 *24:10 0
54 *23:56 *27:83 0
55 *23:56 *57:22 7.48842e-05
56 *1033:A *23:10 0
*RES
1 *1033:X *23:10 41.9055 
2 *23:10 *1049:B 40.3193 
3 *23:10 *23:21 13.699 
4 *23:21 *23:25 22.4823 
5 *23:25 *1056:B 21.8334 
6 *23:25 *23:36 28.0134 
7 *23:36 *23:40 2.1527 
8 *23:40 *23:44 20.5356 
9 *23:44 *23:56 44.6453 
10 *23:56 *1059:A1 24.1406 
11 *23:56 *1060:B 20.5356 
12 *23:44 *1042:B 20.6412 
13 *23:40 *1036:B 45.6135 
14 *23:36 *1035:A1 40 
15 *23:21 *1055:A1 43.0185 
*END

*D_NET *24 0.00349651
*CONN
*I *1036:C I *D sg13g2_or3_1
*I *1042:C I *D sg13g2_nor3_2
*I *1035:A2 I *D sg13g2_o21ai_1
*I *1034:Y O *D sg13g2_nand4_1
*CAP
1 *1036:C 0.000286287
2 *1042:C 5.62446e-05
3 *1035:A2 4.69727e-05
4 *1034:Y 0.000376738
5 *24:21 0.000523387
6 *24:10 0.000604566
7 *1035:A2 *1035:B1 4.75829e-05
8 *1035:A2 *1041:A 3.23417e-05
9 *1035:A2 *27:8 0
10 *1036:C *46:10 0
11 *1036:C *46:24 0
12 *1036:C *64:23 0.000800045
13 *1042:C *1043:S 1.54008e-05
14 *24:10 *1041:A 7.99242e-05
15 *24:10 *27:8 0.000111392
16 *24:10 *57:22 1.54008e-05
17 *24:10 *71:25 0
18 *24:21 *27:83 0
19 *24:21 *64:23 0.000500228
20 *23:56 *24:10 0
*RES
1 *1034:Y *24:10 24.0788 
2 *24:10 *1035:A2 20.5356 
3 *24:10 *24:21 22.575 
4 *24:21 *1042:C 40.5356 
5 *24:21 *1036:C 44.3466 
*END

*D_NET *25 0.00184678
*CONN
*I *1088:A I *D sg13g2_dlygate4sd3_1
*I *1035:Y O *D sg13g2_o21ai_1
*CAP
1 *1088:A 0
2 *1035:Y 0.000143935
3 *25:8 0.000143935
4 *25:8 *64:23 0.000767306
5 *1036:B *25:8 0.000555308
6 *23:40 *25:8 0.000236294
*RES
1 *1035:Y *25:8 43.5638 
2 *25:8 *1088:A 40 
*END

*D_NET *26 0.00109285
*CONN
*I *1038:A2 I *D sg13g2_a21oi_1
*I *1036:X O *D sg13g2_or3_1
*CAP
1 *1038:A2 0
2 *1036:X 0.000490181
3 *26:10 0.000490181
4 *26:10 *1038:A1 0
5 *26:10 *1072:D 0
6 *26:10 *47:10 0
7 *26:10 *64:10 0.000112486
8 *14:10 *26:10 0
9 *21:8 *26:10 0
*RES
1 *1036:X *26:10 45.1809 
2 *26:10 *1038:A2 40 
*END

*D_NET *27 0.0145357
*CONN
*I *1061:B1 I *D sg13g2_a21oi_1
*I *1038:B1 I *D sg13g2_a21oi_1
*I *1040:B I *D sg13g2_nor2_1
*I *1057:B1 I *D sg13g2_a21oi_1
*I *1050:A I *D sg13g2_nor2_1
*I *1053:A I *D sg13g2_nor2_1
*I *1045:A I *D sg13g2_nor2_1
*I *1048:A I *D sg13g2_nor2_1
*I *1037:Y O *D sg13g2_inv_1
*CAP
1 *1061:B1 3.00576e-05
2 *1038:B1 3.18632e-05
3 *1040:B 0.000597273
4 *1057:B1 0
5 *1050:A 3.54099e-05
6 *1053:A 3.30976e-05
7 *1045:A 6.47675e-05
8 *1048:A 0.000135433
9 *1037:Y 0.000274382
10 *27:89 0.000798078
11 *27:83 0.000757293
12 *27:36 0.00131582
13 *27:30 0.00153021
14 *27:28 0.00131342
15 *27:14 0.00192958
16 *27:8 0.00186574
17 *1038:B1 *1104:A 1.54008e-05
18 *1040:B *1038:A1 4.78688e-05
19 *1040:B *1040:A 0
20 *1040:B *1043:A1 1.54556e-05
21 *1045:A *1045:B 0
22 *1048:A *1046:A 0
23 *1048:A *1048:B 0
24 *1050:A *1050:B 0
25 *27:14 *1057:A1 0
26 *27:14 *1057:A2 0
27 *27:14 *46:10 0
28 *27:28 *44:35 0
29 *27:28 *71:25 0
30 *27:28 *73:16 0.000607195
31 *27:28 *76:6 0.000144311
32 *27:28 *76:16 0
33 *27:28 *77:25 0
34 *27:30 *1051:B 0
35 *27:30 *73:16 0
36 *27:36 *1051:B 0
37 *27:36 *1101:A 0.00108822
38 *27:36 *33:10 0
39 *27:36 *67:14 0
40 *27:36 *67:38 0
41 *27:36 *69:21 0
42 *27:36 *70:14 0
43 *27:36 *70:20 0.000287672
44 *27:36 *75:10 0.000449343
45 *27:83 *1061:A2 0
46 *27:83 *30:8 0.00034179
47 *27:83 *46:10 0
48 *27:83 *47:10 0
49 *27:89 *1104:A 0.000554906
50 *27:89 *46:10 0
51 *1035:A2 *27:8 0
52 *1055:A1 *27:14 0
53 *1086:A *27:28 0.000144311
54 *3:10 *27:36 0
55 *16:10 *1045:A 1.54556e-05
56 *16:10 *1048:A 0
57 *23:21 *27:14 0
58 *23:36 *27:14 0
59 *23:44 *27:8 0
60 *23:56 *27:83 0
61 *24:10 *27:8 0.000111392
62 *24:21 *27:83 0
*RES
1 *1037:Y *27:8 42.9149 
2 *27:8 *27:14 31.4845 
3 *27:14 *27:28 29.9807 
4 *27:28 *27:30 3.811 
5 *27:30 *27:36 34.9453 
6 *27:36 *1048:A 21.4008 
7 *27:36 *1045:A 20.8858 
8 *27:30 *1053:A 40.3193 
9 *27:28 *1050:A 40.3193 
10 *27:14 *1057:B1 20 
11 *27:8 *27:83 24.736 
12 *27:83 *27:89 42.575 
13 *27:89 *1040:B 26.2109 