* NGSPICE file created from inverter_top_pex.ext - technology: ihp-sg13g2

.subckt inverter_top_pex VDD vin4 vout4 VSS vin3 vout3 vin2 vout2 vout1 vin1
X0 vout3.t7 vin3.t0 VSS.t72 VSS.t53 sg13_lv_nmos ad=0.19p pd=1.38u as=0.19p ps=1.38u w=1u l=1u
X1 VDD.t5 VDD.t4 VDD.t5 VDD.t1 sg13_lv_pmos ad=1.14p pd=6.38u as=0 ps=0 w=6u l=1u
X2 VSS.t22 VSS.t19 VSS.t21 VSS.t20 sg13_lv_nmos ad=0.34p pd=2.68u as=0 ps=0 w=1u l=1u
X3 VDD.t16 VDD.t15 VDD.t16 VDD.t12 sg13_lv_pmos ad=1.14p pd=6.38u as=0 ps=0 w=6u l=1u
X4 VDD.t97 vin4.t0 vout4.t11 VDD.t1 sg13_lv_pmos ad=1.14p pd=6.38u as=1.14p ps=6.38u w=6u l=1u
X5 vout2.t17 vin2.t2 VSS.t43 VSS.t44 sg13_lv_nmos ad=0.19p pd=1.38u as=0.19p ps=1.38u w=1u l=1u
X6 vout3.t11 vin3.t2 VDD.t45 VDD.t1 sg13_lv_pmos ad=1.14p pd=6.38u as=1.14p ps=6.38u w=6u l=1u
X7 vout4.t7 vin4.t2 VSS.t106 VSS.t107 sg13_lv_nmos ad=0.19p pd=1.38u as=0.19p ps=1.38u w=1u l=1u
X8 vout3.t0 vin3.t0 VSS.t9 VSS.t26 sg13_lv_nmos ad=0.19p pd=1.38u as=0.19p ps=1.38u w=1u l=1u
X9 vout2.t14 vin2.t2 VSS.t37 VSS.t38 sg13_lv_nmos ad=0.19p pd=1.38u as=0.19p ps=1.38u w=1u l=1u
X10 vout4.t18 vin4.t0 VDD.t99 VDD.t1 sg13_lv_pmos ad=1.14p pd=6.38u as=1.14p ps=6.38u w=6u l=1u
X11 VDD.t16 vin2.t0 vout2.t9 VDD.t12 sg13_lv_pmos ad=1.14p pd=6.38u as=1.14p ps=6.38u w=6u l=1u
X12 VSS.t43 vin2.t2 vout2.t19 VSS.t42 sg13_lv_nmos ad=0.19p pd=1.38u as=0.19p ps=1.38u w=1u l=1u
X13 vout2.t18 vin2.t2 VSS.t46 VSS.t47 sg13_lv_nmos ad=0.19p pd=1.38u as=0.19p ps=1.38u w=1u l=1u
X14 vout2.t3 vin2.t0 VDD.t23 VDD.t12 sg13_lv_pmos ad=1.14p pd=6.38u as=1.14p ps=6.38u w=6u l=1u
X15 VSS.t112 vin4.t2 vout4.t3 VSS.t111 sg13_lv_nmos ad=0.19p pd=1.38u as=0.19p ps=1.38u w=1u l=1u
X16 vout1.t16 vin1.t0 VSS.t98 VSS.t99 sg13_lv_nmos ad=0.19p pd=1.38u as=0.19p ps=1.38u w=1u l=1u
X17 VDD.t27 vin2.t0 vout2.t4 VDD.t12 sg13_lv_pmos ad=1.14p pd=6.38u as=1.14p ps=6.38u w=6u l=1u
X18 vout4.t6 vin4.t2 VSS.t2 VSS.t104 sg13_lv_nmos ad=0.19p pd=1.38u as=0.19p ps=1.38u w=1u l=1u
X19 VDD.t23 vin2.t0 vout2.t2 VDD.t12 sg13_lv_pmos ad=1.14p pd=6.38u as=1.14p ps=6.38u w=6u l=1u
X20 VSS.t72 vin3.t0 vout3.t6 VSS.t51 sg13_lv_nmos ad=0.19p pd=1.38u as=0.19p ps=1.38u w=1u l=1u
X21 vout4.t2 vin4.t2 VSS.t121 VSS.t122 sg13_lv_nmos ad=0.19p pd=1.38u as=0.19p ps=1.38u w=1u l=1u
X22 VSS.t115 vin4.t2 vout4.t4 VSS.t114 sg13_lv_nmos ad=0.19p pd=1.38u as=0.19p ps=1.38u w=1u l=1u
X23 VDD.t45 vin3.t2 vout3.t17 VDD.t1 sg13_lv_pmos ad=1.14p pd=6.38u as=1.14p ps=6.38u w=6u l=1u
X24 VDD.t37 vin2.t0 vout2.t1 VDD.t12 sg13_lv_pmos ad=1.14p pd=6.38u as=1.14p ps=6.38u w=6u l=1u
X25 vout3.t12 vin3.t2 VDD.t47 VDD.t1 sg13_lv_pmos ad=1.14p pd=6.38u as=1.14p ps=6.38u w=6u l=1u
X26 VSS.t37 vin2.t2 vout2.t13 VSS.t36 sg13_lv_nmos ad=0.19p pd=1.38u as=0.19p ps=1.38u w=1u l=1u
X27 VDD.t51 vin3.t2 vout3.t18 VDD.t1 sg13_lv_pmos ad=1.14p pd=6.38u as=1.14p ps=6.38u w=6u l=1u
X28 VSS.t10 VSS.t7 VSS.t9 VSS.t8 sg13_lv_nmos ad=0.34p pd=2.68u as=0 ps=0 w=1u l=1u
X29 vout2.t9 vin2.t0 VDD.t39 VDD.t12 sg13_lv_pmos ad=1.14p pd=6.38u as=1.14p ps=6.38u w=6u l=1u
X30 vout2.t19 vin2.t2 VSS.t40 VSS.t41 sg13_lv_nmos ad=0.19p pd=1.38u as=0.19p ps=1.38u w=1u l=1u
X31 vout1.t12 vin1.t0 VSS.t92 VSS.t93 sg13_lv_nmos ad=0.19p pd=1.38u as=0.19p ps=1.38u w=1u l=1u
X32 VSS.t46 vin2.t2 vout2.t17 VSS.t45 sg13_lv_nmos ad=0.19p pd=1.38u as=0.19p ps=1.38u w=1u l=1u
X33 vout4.t1 vin4.t2 VSS.t118 VSS.t119 sg13_lv_nmos ad=0.19p pd=1.38u as=0.19p ps=1.38u w=1u l=1u
X34 vout1.t5 vin1.t2 VDD.t65 VDD.t12 sg13_lv_pmos ad=1.14p pd=6.38u as=1.14p ps=6.38u w=6u l=1u
X35 vout1.t14 vin1.t0 VSS.t86 VSS.t87 sg13_lv_nmos ad=0.19p pd=1.38u as=0.19p ps=1.38u w=1u l=1u
X36 VSS.t124 vin4.t2 vout4.t2 VSS.t123 sg13_lv_nmos ad=0.19p pd=1.38u as=0.19p ps=1.38u w=1u l=1u
X37 VDD.t10 VDD.t9 VDD.t10 VDD.t1 sg13_lv_pmos ad=1.14p pd=6.38u as=0 ps=0 w=6u l=1u
X38 VSS.t92 vin1.t0 vout1.t19 VSS.t91 sg13_lv_nmos ad=0.19p pd=1.38u as=0.19p ps=1.38u w=1u l=1u
X39 vout2.t2 vin2.t0 VDD.t13 VDD.t12 sg13_lv_pmos ad=1.14p pd=6.38u as=1.14p ps=6.38u w=6u l=1u
X40 VDD.t85 vin4.t0 vout4.t13 VDD.t1 sg13_lv_pmos ad=1.14p pd=6.38u as=1.14p ps=6.38u w=6u l=1u
X41 vout1.t13 vin1.t0 VSS.t95 VSS.t96 sg13_lv_nmos ad=0.19p pd=1.38u as=0.19p ps=1.38u w=1u l=1u
X42 vout3.t6 vin3.t0 VSS.t70 VSS.t50 sg13_lv_nmos ad=0.19p pd=1.38u as=0.19p ps=1.38u w=1u l=1u
X43 VDD.t10 vin3.t1 vout3.t10 VDD.t1 sg13_lv_pmos ad=1.14p pd=6.38u as=1.14p ps=6.38u w=6u l=1u
X44 vout4.t15 vin4.t0 VDD.t87 VDD.t1 sg13_lv_pmos ad=1.14p pd=6.38u as=1.14p ps=6.38u w=6u l=1u
X45 VDD.t83 vin4.t0 vout4.t19 VDD.t1 sg13_lv_pmos ad=1.14p pd=6.38u as=1.14p ps=6.38u w=6u l=1u
X46 vout3.t17 vin3.t2 VDD.t43 VDD.t1 sg13_lv_pmos ad=1.14p pd=6.38u as=1.14p ps=6.38u w=6u l=1u
X47 VDD.t47 vin3.t2 vout3.t11 VDD.t1 sg13_lv_pmos ad=1.14p pd=6.38u as=1.14p ps=6.38u w=6u l=1u
X48 VSS.t6 VSS.t4 VSS.t6 VSS.t5 sg13_lv_nmos ad=0.19p pd=1.38u as=0 ps=0 w=1u l=1u
X49 VDD.t91 vin4.t0 vout4.t16 VDD.t1 sg13_lv_pmos ad=1.14p pd=6.38u as=1.14p ps=6.38u w=6u l=1u
X50 VDD.t39 vin2.t0 vout2.t7 VDD.t12 sg13_lv_pmos ad=1.14p pd=6.38u as=1.14p ps=6.38u w=6u l=1u
X51 VSS.t127 vin4.t2 vout4.t8 VSS.t126 sg13_lv_nmos ad=0.19p pd=1.38u as=0.19p ps=1.38u w=1u l=1u
X52 VDD.t43 vin3.t2 vout3.t19 VDD.t1 sg13_lv_pmos ad=1.14p pd=6.38u as=1.14p ps=6.38u w=6u l=1u
X53 VSS.t86 vin1.t0 vout1.t11 VSS.t85 sg13_lv_nmos ad=0.19p pd=1.38u as=0.19p ps=1.38u w=1u l=1u
X54 VDD.t65 vin1.t2 vout1.t6 VDD.t12 sg13_lv_pmos ad=1.14p pd=6.38u as=1.14p ps=6.38u w=6u l=1u
X55 vout4.t0 vin4.t2 VSS.t130 VSS.t131 sg13_lv_nmos ad=0.19p pd=1.38u as=0.19p ps=1.38u w=1u l=1u
X56 vout1.t0 vin1.t2 VDD.t67 VDD.t12 sg13_lv_pmos ad=1.14p pd=6.38u as=1.14p ps=6.38u w=6u l=1u
X57 vout4.t16 vin4.t0 VDD.t89 VDD.t1 sg13_lv_pmos ad=1.14p pd=6.38u as=1.14p ps=6.38u w=6u l=1u
X58 vout1.t19 vin1.t0 VSS.t89 VSS.t90 sg13_lv_nmos ad=0.19p pd=1.38u as=0.19p ps=1.38u w=1u l=1u
X59 VDD.t71 vin1.t2 vout1.t1 VDD.t12 sg13_lv_pmos ad=1.14p pd=6.38u as=1.14p ps=6.38u w=6u l=1u
X60 vout3.t9 vin3.t0 VSS.t66 VSS.t44 sg13_lv_nmos ad=0.19p pd=1.38u as=0.19p ps=1.38u w=1u l=1u
X61 VSS.t95 vin1.t0 vout1.t12 VSS.t94 sg13_lv_nmos ad=0.19p pd=1.38u as=0.19p ps=1.38u w=1u l=1u
X62 VDD.t14 VDD.t11 VDD.t13 VDD.t12 sg13_lv_pmos ad=2.04p pd=12.68u as=0 ps=0 w=6u l=1u
X63 vout4.t12 vin4.t0 VDD.t97 VDD.t1 sg13_lv_pmos ad=1.14p pd=6.38u as=1.14p ps=6.38u w=6u l=1u
X64 VDD.t57 vin3.t2 vout3.t15 VDD.t1 sg13_lv_pmos ad=1.14p pd=6.38u as=1.14p ps=6.38u w=6u l=1u
X65 VDD.t93 vin4.t0 vout4.t17 VDD.t1 sg13_lv_pmos ad=1.14p pd=6.38u as=1.14p ps=6.38u w=6u l=1u
X66 vout3.t10 vin3.t2 VDD.t59 VDD.t1 sg13_lv_pmos ad=1.14p pd=6.38u as=1.14p ps=6.38u w=6u l=1u
X67 vout3.t4 vin3.t0 VSS.t62 VSS.t38 sg13_lv_nmos ad=0.19p pd=1.38u as=0.19p ps=1.38u w=1u l=1u
X68 VSS.t66 vin3.t0 vout3.t8 VSS.t42 sg13_lv_nmos ad=0.19p pd=1.38u as=0.19p ps=1.38u w=1u l=1u
X69 VDD.t21 VDD.t20 VDD.t21 VDD.t12 sg13_lv_pmos ad=1.14p pd=6.38u as=0 ps=0 w=6u l=1u
X70 vout3.t5 vin3.t0 VSS.t68 VSS.t47 sg13_lv_nmos ad=0.19p pd=1.38u as=0.19p ps=1.38u w=1u l=1u
X71 vout4.t11 vin4.t0 VDD.t95 VDD.t1 sg13_lv_pmos ad=1.14p pd=6.38u as=1.14p ps=6.38u w=6u l=1u
X72 vout3.t19 vin3.t2 VDD.t7 VDD.t1 sg13_lv_pmos ad=1.14p pd=6.38u as=1.14p ps=6.38u w=6u l=1u
X73 VDD.t21 vin1.t1 vout1.t8 VDD.t12 sg13_lv_pmos ad=1.14p pd=6.38u as=1.14p ps=6.38u w=6u l=1u
X74 vout2.t7 vin2.t0 VDD.t37 VDD.t12 sg13_lv_pmos ad=1.14p pd=6.38u as=1.14p ps=6.38u w=6u l=1u
X75 vout1.t6 vin1.t2 VDD.t63 VDD.t12 sg13_lv_pmos ad=1.14p pd=6.38u as=1.14p ps=6.38u w=6u l=1u
X76 vout2.t12 vin2.t2 VSS.t31 VSS.t32 sg13_lv_nmos ad=0.19p pd=1.38u as=0.19p ps=1.38u w=1u l=1u
X77 VDD.t67 vin1.t2 vout1.t5 VDD.t12 sg13_lv_pmos ad=1.14p pd=6.38u as=1.14p ps=6.38u w=6u l=1u
X78 VDD.t63 vin1.t2 vout1.t3 VDD.t12 sg13_lv_pmos ad=1.14p pd=6.38u as=1.14p ps=6.38u w=6u l=1u
X79 VDD.t59 vin3.t2 vout3.t16 VDD.t1 sg13_lv_pmos ad=1.14p pd=6.38u as=1.14p ps=6.38u w=6u l=1u
X80 VSS.t62 vin3.t0 vout3.t3 VSS.t36 sg13_lv_nmos ad=0.19p pd=1.38u as=0.19p ps=1.38u w=1u l=1u
X81 vout3.t8 vin3.t0 VSS.t64 VSS.t41 sg13_lv_nmos ad=0.19p pd=1.38u as=0.19p ps=1.38u w=1u l=1u
X82 VSS.t109 vin4.t2 vout4.t7 VSS.t108 sg13_lv_nmos ad=0.19p pd=1.38u as=0.19p ps=1.38u w=1u l=1u
X83 VDD.t5 vin4.t0 vout4.t18 VDD.t1 sg13_lv_pmos ad=1.14p pd=6.38u as=1.14p ps=6.38u w=6u l=1u
X84 VSS.t68 vin3.t0 vout3.t9 VSS.t45 sg13_lv_nmos ad=0.19p pd=1.38u as=0.19p ps=1.38u w=1u l=1u
X85 vout4.t4 vin4.t2 VSS.t112 VSS.t113 sg13_lv_nmos ad=0.19p pd=1.38u as=0.19p ps=1.38u w=1u l=1u
X86 VDD.t77 vin1.t2 vout1.t9 VDD.t12 sg13_lv_pmos ad=1.14p pd=6.38u as=1.14p ps=6.38u w=6u l=1u
X87 vout2.t0 vin2.t0 VDD.t33 VDD.t12 sg13_lv_pmos ad=1.14p pd=6.38u as=1.14p ps=6.38u w=6u l=1u
X88 vout1.t8 vin1.t2 VDD.t79 VDD.t12 sg13_lv_pmos ad=1.14p pd=6.38u as=1.14p ps=6.38u w=6u l=1u
X89 VSS.t106 vin4.t2 vout4.t6 VSS.t105 sg13_lv_nmos ad=0.19p pd=1.38u as=0.19p ps=1.38u w=1u l=1u
X90 VDD.t8 VDD.t6 VDD.t7 VDD.t1 sg13_lv_pmos ad=2.04p pd=12.68u as=0 ps=0 w=6u l=1u
X91 vout2.t6 vin2.t0 VDD.t29 VDD.t12 sg13_lv_pmos ad=1.14p pd=6.38u as=1.14p ps=6.38u w=6u l=1u
X92 VDD.t33 vin2.t0 vout2.t8 VDD.t12 sg13_lv_pmos ad=1.14p pd=6.38u as=1.14p ps=6.38u w=6u l=1u
X93 VSS.t31 vin2.t2 vout2.t11 VSS.t30 sg13_lv_nmos ad=0.19p pd=1.38u as=0.19p ps=1.38u w=1u l=1u
X94 VSS.t118 vin4.t2 vout4.t5 VSS.t117 sg13_lv_nmos ad=0.19p pd=1.38u as=0.19p ps=1.38u w=1u l=1u
X95 vout2.t1 vin2.t0 VDD.t35 VDD.t12 sg13_lv_pmos ad=1.14p pd=6.38u as=1.14p ps=6.38u w=6u l=1u
X96 VDD.t3 VDD.t0 VDD.t2 VDD.t1 sg13_lv_pmos ad=2.04p pd=12.68u as=0 ps=0 w=6u l=1u
X97 vout2.t13 vin2.t2 VSS.t34 VSS.t35 sg13_lv_nmos ad=0.19p pd=1.38u as=0.19p ps=1.38u w=1u l=1u
X98 VSS.t40 vin2.t2 vout2.t14 VSS.t39 sg13_lv_nmos ad=0.19p pd=1.38u as=0.19p ps=1.38u w=1u l=1u
X99 vout1.t3 vin1.t2 VDD.t18 VDD.t12 sg13_lv_pmos ad=1.14p pd=6.38u as=1.14p ps=6.38u w=6u l=1u
X100 vout1.t10 vin1.t0 VSS.t80 VSS.t81 sg13_lv_nmos ad=0.19p pd=1.38u as=0.19p ps=1.38u w=1u l=1u
X101 vout4.t5 vin4.t2 VSS.t115 VSS.t116 sg13_lv_nmos ad=0.19p pd=1.38u as=0.19p ps=1.38u w=1u l=1u
X102 vout3.t16 vin3.t2 VDD.t57 VDD.t1 sg13_lv_pmos ad=1.14p pd=6.38u as=1.14p ps=6.38u w=6u l=1u
X103 vout4.t9 vin4.t2 VSS.t127 VSS.t128 sg13_lv_nmos ad=0.19p pd=1.38u as=0.19p ps=1.38u w=1u l=1u
X104 VSS.t18 VSS.t17 VSS.t18 VSS.t12 sg13_lv_nmos ad=0.19p pd=1.38u as=0 ps=0 w=1u l=1u
X105 VSS.t121 vin4.t2 vout4.t1 VSS.t120 sg13_lv_nmos ad=0.19p pd=1.38u as=0.19p ps=1.38u w=1u l=1u
X106 VDD.t79 vin1.t2 vout1.t7 VDD.t12 sg13_lv_pmos ad=1.14p pd=6.38u as=1.14p ps=6.38u w=6u l=1u
X107 VSS.t18 vin2.t1 vout2.t16 VSS.t54 sg13_lv_nmos ad=0.19p pd=1.38u as=0.19p ps=1.38u w=1u l=1u
X108 VDD.t29 vin2.t0 vout2.t5 VDD.t12 sg13_lv_pmos ad=1.14p pd=6.38u as=1.14p ps=6.38u w=6u l=1u
X109 vout4.t8 vin4.t2 VSS.t124 VSS.t125 sg13_lv_nmos ad=0.19p pd=1.38u as=0.19p ps=1.38u w=1u l=1u
X110 vout4.t14 vin4.t0 VDD.t85 VDD.t1 sg13_lv_pmos ad=1.14p pd=6.38u as=1.14p ps=6.38u w=6u l=1u
X111 vout2.t8 vin2.t0 VDD.t31 VDD.t12 sg13_lv_pmos ad=1.14p pd=6.38u as=1.14p ps=6.38u w=6u l=1u
X112 vout2.t11 vin2.t2 VSS.t28 VSS.t29 sg13_lv_nmos ad=0.19p pd=1.38u as=0.19p ps=1.38u w=1u l=1u
X113 VDD.t35 vin2.t0 vout2.t0 VDD.t12 sg13_lv_pmos ad=1.14p pd=6.38u as=1.14p ps=6.38u w=6u l=1u
X114 VSS.t34 vin2.t2 vout2.t12 VSS.t33 sg13_lv_nmos ad=0.19p pd=1.38u as=0.19p ps=1.38u w=1u l=1u
X115 VDD.t99 vin4.t0 vout4.t12 VDD.t1 sg13_lv_pmos ad=1.14p pd=6.38u as=1.14p ps=6.38u w=6u l=1u
X116 VDD.t19 VDD.t17 VDD.t18 VDD.t12 sg13_lv_pmos ad=2.04p pd=12.68u as=0 ps=0 w=6u l=1u
X117 VSS.t28 vin2.t2 vout2.t10 VSS.t27 sg13_lv_nmos ad=0.19p pd=1.38u as=0.19p ps=1.38u w=1u l=1u
X118 VSS.t80 vin1.t0 vout1.t18 VSS.t79 sg13_lv_nmos ad=0.19p pd=1.38u as=0.19p ps=1.38u w=1u l=1u
X119 vout3.t14 vin3.t2 VDD.t53 VDD.t1 sg13_lv_pmos ad=1.14p pd=6.38u as=1.14p ps=6.38u w=6u l=1u
X120 vout1.t11 vin1.t0 VSS.t83 VSS.t84 sg13_lv_nmos ad=0.19p pd=1.38u as=0.19p ps=1.38u w=1u l=1u
X121 VSS.t89 vin1.t0 vout1.t14 VSS.t88 sg13_lv_nmos ad=0.19p pd=1.38u as=0.19p ps=1.38u w=1u l=1u
X122 vout3.t18 vin3.t2 VDD.t49 VDD.t1 sg13_lv_pmos ad=1.14p pd=6.38u as=1.14p ps=6.38u w=6u l=1u
X123 VDD.t53 vin3.t2 vout3.t13 VDD.t1 sg13_lv_pmos ad=1.14p pd=6.38u as=1.14p ps=6.38u w=6u l=1u
X124 vout3.t15 vin3.t2 VDD.t55 VDD.t1 sg13_lv_pmos ad=1.14p pd=6.38u as=1.14p ps=6.38u w=6u l=1u
X125 vout3.t2 vin3.t0 VSS.t58 VSS.t32 sg13_lv_nmos ad=0.19p pd=1.38u as=0.19p ps=1.38u w=1u l=1u
X126 VSS.t49 vin2.t2 vout2.t18 VSS.t48 sg13_lv_nmos ad=0.19p pd=1.38u as=0.19p ps=1.38u w=1u l=1u
X127 vout1.t7 vin1.t2 VDD.t77 VDD.t12 sg13_lv_pmos ad=1.14p pd=6.38u as=1.14p ps=6.38u w=6u l=1u
X128 vout2.t16 vin2.t2 VSS.t52 VSS.t53 sg13_lv_nmos ad=0.19p pd=1.38u as=0.19p ps=1.38u w=1u l=1u
X129 VSS.t6 vin4.t1 vout4.t0 VSS.t132 sg13_lv_nmos ad=0.19p pd=1.38u as=0.19p ps=1.38u w=1u l=1u
X130 VSS.t25 VSS.t23 VSS.t25 VSS.t24 sg13_lv_nmos ad=0.19p pd=1.38u as=0 ps=0 w=1u l=1u
X131 VSS.t25 vin1.t0 vout1.t17 VSS.t103 sg13_lv_nmos ad=0.19p pd=1.38u as=0.19p ps=1.38u w=1u l=1u
X132 vout2.t10 vin2.t2 VSS.t15 VSS.t26 sg13_lv_nmos ad=0.19p pd=1.38u as=0.19p ps=1.38u w=1u l=1u
X133 VSS.t3 VSS.t0 VSS.t2 VSS.t1 sg13_lv_nmos ad=0.34p pd=2.68u as=0 ps=0 w=1u l=1u
X134 vout1.t18 vin1.t0 VSS.t77 VSS.t78 sg13_lv_nmos ad=0.19p pd=1.38u as=0.19p ps=1.38u w=1u l=1u
X135 VSS.t83 vin1.t0 vout1.t10 VSS.t82 sg13_lv_nmos ad=0.19p pd=1.38u as=0.19p ps=1.38u w=1u l=1u
X136 VDD.t49 vin3.t2 vout3.t12 VDD.t1 sg13_lv_pmos ad=1.14p pd=6.38u as=1.14p ps=6.38u w=6u l=1u
X137 VSS.t77 vin1.t0 vout1.t15 VSS.t76 sg13_lv_nmos ad=0.19p pd=1.38u as=0.19p ps=1.38u w=1u l=1u
X138 vout4.t13 vin4.t0 VDD.t83 VDD.t1 sg13_lv_pmos ad=1.14p pd=6.38u as=1.14p ps=6.38u w=6u l=1u
X139 vout3.t13 vin3.t2 VDD.t51 VDD.t1 sg13_lv_pmos ad=1.14p pd=6.38u as=1.14p ps=6.38u w=6u l=1u
X140 VDD.t55 vin3.t2 vout3.t14 VDD.t1 sg13_lv_pmos ad=1.14p pd=6.38u as=1.14p ps=6.38u w=6u l=1u
X141 VSS.t58 vin3.t0 vout3.t1 VSS.t30 sg13_lv_nmos ad=0.19p pd=1.38u as=0.19p ps=1.38u w=1u l=1u
X142 vout3.t3 vin3.t0 VSS.t60 VSS.t35 sg13_lv_nmos ad=0.19p pd=1.38u as=0.19p ps=1.38u w=1u l=1u
X143 vout1.t4 vin1.t2 VDD.t73 VDD.t12 sg13_lv_pmos ad=1.14p pd=6.38u as=1.14p ps=6.38u w=6u l=1u
X144 VSS.t52 vin2.t2 vout2.t15 VSS.t51 sg13_lv_nmos ad=0.19p pd=1.38u as=0.19p ps=1.38u w=1u l=1u
X145 VSS.t64 vin3.t0 vout3.t4 VSS.t39 sg13_lv_nmos ad=0.19p pd=1.38u as=0.19p ps=1.38u w=1u l=1u
X146 VDD.t87 vin4.t0 vout4.t14 VDD.t1 sg13_lv_pmos ad=1.14p pd=6.38u as=1.14p ps=6.38u w=6u l=1u
X147 vout1.t1 vin1.t2 VDD.t69 VDD.t12 sg13_lv_pmos ad=1.14p pd=6.38u as=1.14p ps=6.38u w=6u l=1u
X148 VDD.t73 vin1.t2 vout1.t2 VDD.t12 sg13_lv_pmos ad=1.14p pd=6.38u as=1.14p ps=6.38u w=6u l=1u
X149 vout4.t19 vin4.t0 VDD.t2 VDD.t1 sg13_lv_pmos ad=1.14p pd=6.38u as=1.14p ps=6.38u w=6u l=1u
X150 VSS.t98 vin1.t0 vout1.t13 VSS.t97 sg13_lv_nmos ad=0.19p pd=1.38u as=0.19p ps=1.38u w=1u l=1u
X151 vout1.t17 vin1.t0 VSS.t101 VSS.t102 sg13_lv_nmos ad=0.19p pd=1.38u as=0.19p ps=1.38u w=1u l=1u
X152 vout1.t9 vin1.t2 VDD.t75 VDD.t12 sg13_lv_pmos ad=1.14p pd=6.38u as=1.14p ps=6.38u w=6u l=1u
X153 vout2.t4 vin2.t0 VDD.t25 VDD.t12 sg13_lv_pmos ad=1.14p pd=6.38u as=1.14p ps=6.38u w=6u l=1u
X154 vout4.t3 vin4.t2 VSS.t109 VSS.t110 sg13_lv_nmos ad=0.19p pd=1.38u as=0.19p ps=1.38u w=1u l=1u
X155 VSS.t16 VSS.t14 VSS.t15 VSS.t8 sg13_lv_nmos ad=0.34p pd=2.68u as=0 ps=0 w=1u l=1u
X156 VSS.t13 VSS.t11 VSS.t13 VSS.t12 sg13_lv_nmos ad=0.19p pd=1.38u as=0 ps=0 w=1u l=1u
X157 vout4.t10 vin4.t0 VDD.t93 VDD.t1 sg13_lv_pmos ad=1.14p pd=6.38u as=1.14p ps=6.38u w=6u l=1u
X158 VSS.t13 vin3.t0 vout3.t7 VSS.t54 sg13_lv_nmos ad=0.19p pd=1.38u as=0.19p ps=1.38u w=1u l=1u
X159 VSS.t130 vin4.t2 vout4.t9 VSS.t129 sg13_lv_nmos ad=0.19p pd=1.38u as=0.19p ps=1.38u w=1u l=1u
X160 VDD.t89 vin4.t0 vout4.t15 VDD.t1 sg13_lv_pmos ad=1.14p pd=6.38u as=1.14p ps=6.38u w=6u l=1u
X161 vout1.t15 vin1.t0 VSS.t21 VSS.t75 sg13_lv_nmos ad=0.19p pd=1.38u as=0.19p ps=1.38u w=1u l=1u
X162 vout3.t1 vin3.t0 VSS.t56 VSS.t29 sg13_lv_nmos ad=0.19p pd=1.38u as=0.19p ps=1.38u w=1u l=1u
X163 VSS.t60 vin3.t0 vout3.t2 VSS.t33 sg13_lv_nmos ad=0.19p pd=1.38u as=0.19p ps=1.38u w=1u l=1u
X164 vout4.t17 vin4.t0 VDD.t91 VDD.t1 sg13_lv_pmos ad=1.14p pd=6.38u as=1.14p ps=6.38u w=6u l=1u
X165 vout2.t15 vin2.t2 VSS.t49 VSS.t50 sg13_lv_nmos ad=0.19p pd=1.38u as=0.19p ps=1.38u w=1u l=1u
X166 VSS.t56 vin3.t0 vout3.t0 VSS.t27 sg13_lv_nmos ad=0.19p pd=1.38u as=0.19p ps=1.38u w=1u l=1u
X167 VDD.t69 vin1.t2 vout1.t0 VDD.t12 sg13_lv_pmos ad=1.14p pd=6.38u as=1.14p ps=6.38u w=6u l=1u
X168 vout1.t2 vin1.t2 VDD.t71 VDD.t12 sg13_lv_pmos ad=1.14p pd=6.38u as=1.14p ps=6.38u w=6u l=1u
X169 VDD.t75 vin1.t2 vout1.t4 VDD.t12 sg13_lv_pmos ad=1.14p pd=6.38u as=1.14p ps=6.38u w=6u l=1u
X170 VDD.t95 vin4.t0 vout4.t10 VDD.t1 sg13_lv_pmos ad=1.14p pd=6.38u as=1.14p ps=6.38u w=6u l=1u
X171 VSS.t101 vin1.t0 vout1.t16 VSS.t100 sg13_lv_nmos ad=0.19p pd=1.38u as=0.19p ps=1.38u w=1u l=1u
X172 VDD.t25 vin2.t0 vout2.t3 VDD.t12 sg13_lv_pmos ad=1.14p pd=6.38u as=1.14p ps=6.38u w=6u l=1u
X173 vout2.t5 vin2.t0 VDD.t27 VDD.t12 sg13_lv_pmos ad=1.14p pd=6.38u as=1.14p ps=6.38u w=6u l=1u
X174 VDD.t31 vin2.t0 vout2.t6 VDD.t12 sg13_lv_pmos ad=1.14p pd=6.38u as=1.14p ps=6.38u w=6u l=1u
X175 VSS.t70 vin3.t0 vout3.t5 VSS.t48 sg13_lv_nmos ad=0.19p pd=1.38u as=0.19p ps=1.38u w=1u l=1u
C0 vout1 vin1 18.2968f
C1 vin1 VDD 29.2329f
C2 vout2 VDD 15.3834f
C3 vout3 VDD 15.3834f
C4 vin3 VDD 29.202f
C5 VDD vin4 29.2329f
C6 vout4 VDD 15.3949f
C7 vin3 vout3 18.2968f
C8 vin3 vin4 0.05053f
C9 vout4 vin4 18.2968f
C10 vin2 VDD 29.202f
C11 vin2 vin1 0.05053f
C12 vin2 vout2 18.2968f
C13 vin2 vin3 0.05785f
C14 vout1 VDD 15.3949f
R0 vout1.n9 vout1.t17 10.2939
R1 vout1.n8 vout1.t16 10.2939
R2 vout1.n7 vout1.t13 10.2939
R3 vout1.n6 vout1.t12 10.2939
R4 vout1.n5 vout1.t19 10.2939
R5 vout1.n4 vout1.t14 10.2939
R6 vout1.n3 vout1.t11 10.2939
R7 vout1.n2 vout1.t10 10.2939
R8 vout1.n1 vout1.t18 10.2939
R9 vout1.n0 vout1.t15 10.2939
R10 vout1.n9 vout1.t8 2.0884
R11 vout1.n8 vout1.t7 2.0884
R12 vout1.n7 vout1.t9 2.0884
R13 vout1.n6 vout1.t4 2.0884
R14 vout1.n5 vout1.t2 2.0884
R15 vout1.n4 vout1.t1 2.0693
R16 vout1.n3 vout1.t0 2.0693
R17 vout1.n2 vout1.t5 2.0693
R18 vout1.n1 vout1.t6 2.0693
R19 vout1.n0 vout1.t3 2.06738
R20 vout1.n9 vout1.n8 0.16242
R21 vout1.n8 vout1.n7 0.16242
R22 vout1.n7 vout1.n6 0.16242
R23 vout1.n6 vout1.n5 0.16242
R24 vout1.n5 vout1.n4 0.16242
R25 vout1.n4 vout1.n3 0.16242
R26 vout1.n3 vout1.n2 0.16242
R27 vout1.n2 vout1.n1 0.16242
R28 vout1.n1 vout1.n0 0.16242
R29 vout1 vout1.n9 0.0151667
R30 vin1.n19 vin1.t0 0.994013
R31 vin1.n17 vin1.n16 0.965665
R32 vin1.n28 vin1.n27 0.83231
R33 vin1.n9 vin1.n0 0.754036
R34 vin1.n20 vin1.n19 0.578786
R35 vin1.n21 vin1.n20 0.578786
R36 vin1.n22 vin1.n21 0.578786
R37 vin1.n23 vin1.n22 0.578786
R38 vin1.n24 vin1.n23 0.578786
R39 vin1.n25 vin1.n24 0.578786
R40 vin1.n26 vin1.n25 0.578786
R41 vin1.n27 vin1.n26 0.578786
R42 vin1.n17 vin1.n15 0.578786
R43 vin1.n15 vin1.n14 0.578786
R44 vin1.n14 vin1.n13 0.578786
R45 vin1.n13 vin1.n12 0.578786
R46 vin1.n12 vin1.n11 0.578786
R47 vin1.n11 vin1.n10 0.578786
R48 vin1.n10 vin1.n9 0.578786
R49 vin1.n20 vin1.n8 0.254024
R50 vin1.n21 vin1.n7 0.254024
R51 vin1.n22 vin1.n6 0.254024
R52 vin1.n23 vin1.n5 0.254024
R53 vin1.n24 vin1.n4 0.254024
R54 vin1.n25 vin1.n3 0.254024
R55 vin1.n26 vin1.n2 0.254024
R56 vin1.n27 vin1.n1 0.254024
R57 vin1.n9 vin1.n2 0.254024
R58 vin1.n10 vin1.n3 0.254024
R59 vin1.n11 vin1.n4 0.254024
R60 vin1.n12 vin1.n5 0.254024
R61 vin1.n13 vin1.n6 0.254024
R62 vin1.n14 vin1.n7 0.254024
R63 vin1.n15 vin1.n8 0.254024
R64 vin1.n19 vin1.n18 0.192615
R65 vin1.n18 vin1.n17 0.191641
R66 vin1.n18 vin1.n8 0.128842
R67 vin1.n8 vin1.n7 0.12194
R68 vin1.n7 vin1.n6 0.12194
R69 vin1.n6 vin1.n5 0.12194
R70 vin1.n5 vin1.n4 0.12194
R71 vin1.n4 vin1.n3 0.12194
R72 vin1.n3 vin1.n2 0.12194
R73 vin1.n2 vin1.n1 0.12194
R74 vin1.n28 vin1.n0 0.0847067
R75 vin1.n1 vin1.n0 0.0265126
R76 vin1 vin1.n28 0.00974
R77 vin1.n16 vin1.t1 0.00374593
R78 vin1.n16 vin1.t2 0.00125388
R79 vout2.n9 vout2.t16 10.2939
R80 vout2.n8 vout2.t15 10.2939
R81 vout2.n7 vout2.t18 10.2939
R82 vout2.n6 vout2.t17 10.2939
R83 vout2.n5 vout2.t19 10.2939
R84 vout2.n4 vout2.t14 10.2939
R85 vout2.n3 vout2.t13 10.2939
R86 vout2.n2 vout2.t12 10.2939
R87 vout2.n1 vout2.t11 10.2939
R88 vout2.n0 vout2.t10 10.2933
R89 vout2.n9 vout2.t9 2.08789
R90 vout2.n8 vout2.t7 2.08789
R91 vout2.n7 vout2.t1 2.08789
R92 vout2.n6 vout2.t0 2.08789
R93 vout2.n5 vout2.t8 2.08789
R94 vout2.n4 vout2.t6 2.0693
R95 vout2.n3 vout2.t5 2.0693
R96 vout2.n2 vout2.t4 2.0693
R97 vout2.n1 vout2.t3 2.0693
R98 vout2.n0 vout2.t2 2.0693
R99 vout2.n9 vout2.n8 0.16242
R100 vout2.n8 vout2.n7 0.16242
R101 vout2.n7 vout2.n6 0.16242
R102 vout2.n6 vout2.n5 0.16242
R103 vout2.n5 vout2.n4 0.16242
R104 vout2.n4 vout2.n3 0.16242
R105 vout2.n3 vout2.n2 0.16242
R106 vout2.n2 vout2.n1 0.16242
R107 vout2.n1 vout2.n0 0.16242
R108 vout2 vout2.n9 0.0151667
R109 vin2.n19 vin2.t0 0.994013
R110 vin2.n17 vin2.n16 0.965665
R111 vin2.n28 vin2.n27 0.83231
R112 vin2.n9 vin2.n0 0.754036
R113 vin2.n20 vin2.n19 0.578786
R114 vin2.n21 vin2.n20 0.578786
R115 vin2.n22 vin2.n21 0.578786
R116 vin2.n23 vin2.n22 0.578786
R117 vin2.n24 vin2.n23 0.578786
R118 vin2.n25 vin2.n24 0.578786
R119 vin2.n26 vin2.n25 0.578786
R120 vin2.n27 vin2.n26 0.578786
R121 vin2.n17 vin2.n15 0.578786
R122 vin2.n15 vin2.n14 0.578786
R123 vin2.n14 vin2.n13 0.578786
R124 vin2.n13 vin2.n12 0.578786
R125 vin2.n12 vin2.n11 0.578786
R126 vin2.n11 vin2.n10 0.578786
R127 vin2.n10 vin2.n9 0.578786
R128 vin2.n20 vin2.n8 0.254024
R129 vin2.n21 vin2.n7 0.254024
R130 vin2.n22 vin2.n6 0.254024
R131 vin2.n23 vin2.n5 0.254024
R132 vin2.n24 vin2.n4 0.254024
R133 vin2.n25 vin2.n3 0.254024
R134 vin2.n26 vin2.n2 0.254024
R135 vin2.n27 vin2.n1 0.254024
R136 vin2.n9 vin2.n2 0.254024
R137 vin2.n10 vin2.n3 0.254024
R138 vin2.n11 vin2.n4 0.254024
R139 vin2.n12 vin2.n5 0.254024
R140 vin2.n13 vin2.n6 0.254024
R141 vin2.n14 vin2.n7 0.254024
R142 vin2.n15 vin2.n8 0.254024
R143 vin2.n19 vin2.n18 0.192615
R144 vin2.n18 vin2.n17 0.191641
R145 vin2.n18 vin2.n8 0.128842
R146 vin2.n8 vin2.n7 0.12194
R147 vin2.n7 vin2.n6 0.12194
R148 vin2.n6 vin2.n5 0.12194
R149 vin2.n5 vin2.n4 0.12194
R150 vin2.n4 vin2.n3 0.12194
R151 vin2.n3 vin2.n2 0.12194
R152 vin2.n2 vin2.n1 0.12194
R153 vin2.n28 vin2.n0 0.0847067
R154 vin2.n1 vin2.n0 0.0265126
R155 vin2 vin2.n28 0.00974
R156 vin2.n16 vin2.t1 0.00374593
R157 vin2.n16 vin2.t2 0.00125388
R158 vout3.n9 vout3.t7 10.2939
R159 vout3.n8 vout3.t6 10.2939
R160 vout3.n7 vout3.t5 10.2939
R161 vout3.n6 vout3.t9 10.2939
R162 vout3.n5 vout3.t8 10.2939
R163 vout3.n4 vout3.t4 10.2939
R164 vout3.n3 vout3.t3 10.2939
R165 vout3.n2 vout3.t2 10.2939
R166 vout3.n1 vout3.t1 10.2939
R167 vout3.n0 vout3.t0 10.2939
R168 vout3.n9 vout3.t10 2.0884
R169 vout3.n8 vout3.t16 2.0884
R170 vout3.n7 vout3.t15 2.0884
R171 vout3.n6 vout3.t14 2.0884
R172 vout3.n5 vout3.t13 2.0884
R173 vout3.n4 vout3.t18 2.0693
R174 vout3.n3 vout3.t12 2.0693
R175 vout3.n2 vout3.t11 2.0693
R176 vout3.n1 vout3.t17 2.0693
R177 vout3.n0 vout3.t19 2.06738
R178 vout3.n9 vout3.n8 0.16242
R179 vout3.n8 vout3.n7 0.16242
R180 vout3.n7 vout3.n6 0.16242
R181 vout3.n6 vout3.n5 0.16242
R182 vout3.n5 vout3.n4 0.16242
R183 vout3.n4 vout3.n3 0.16242
R184 vout3.n3 vout3.n2 0.16242
R185 vout3.n2 vout3.n1 0.16242
R186 vout3.n1 vout3.n0 0.16242
R187 vout3 vout3.n9 0.0151667
R188 vin3.n19 vin3.t0 0.994013
R189 vin3.n17 vin3.n16 0.965665
R190 vin3.n28 vin3.n27 0.83231
R191 vin3.n9 vin3.n0 0.754036
R192 vin3.n20 vin3.n19 0.578786
R193 vin3.n21 vin3.n20 0.578786
R194 vin3.n22 vin3.n21 0.578786
R195 vin3.n23 vin3.n22 0.578786
R196 vin3.n24 vin3.n23 0.578786
R197 vin3.n25 vin3.n24 0.578786
R198 vin3.n26 vin3.n25 0.578786
R199 vin3.n27 vin3.n26 0.578786
R200 vin3.n17 vin3.n15 0.578786
R201 vin3.n15 vin3.n14 0.578786
R202 vin3.n14 vin3.n13 0.578786
R203 vin3.n13 vin3.n12 0.578786
R204 vin3.n12 vin3.n11 0.578786
R205 vin3.n11 vin3.n10 0.578786
R206 vin3.n10 vin3.n9 0.578786
R207 vin3.n20 vin3.n8 0.254024
R208 vin3.n21 vin3.n7 0.254024
R209 vin3.n22 vin3.n6 0.254024
R210 vin3.n23 vin3.n5 0.254024
R211 vin3.n24 vin3.n4 0.254024
R212 vin3.n25 vin3.n3 0.254024
R213 vin3.n26 vin3.n2 0.254024
R214 vin3.n27 vin3.n1 0.254024
R215 vin3.n9 vin3.n2 0.254024
R216 vin3.n10 vin3.n3 0.254024
R217 vin3.n11 vin3.n4 0.254024
R218 vin3.n12 vin3.n5 0.254024
R219 vin3.n13 vin3.n6 0.254024
R220 vin3.n14 vin3.n7 0.254024
R221 vin3.n15 vin3.n8 0.254024
R222 vin3.n19 vin3.n18 0.192615
R223 vin3.n18 vin3.n17 0.191641
R224 vin3.n18 vin3.n8 0.128842
R225 vin3.n8 vin3.n7 0.12194
R226 vin3.n7 vin3.n6 0.12194
R227 vin3.n6 vin3.n5 0.12194
R228 vin3.n5 vin3.n4 0.12194
R229 vin3.n4 vin3.n3 0.12194
R230 vin3.n3 vin3.n2 0.12194
R231 vin3.n2 vin3.n1 0.12194
R232 vin3.n28 vin3.n0 0.0847067
R233 vin3.n1 vin3.n0 0.0265126
R234 vin3 vin3.n28 0.00974
R235 vin3.n16 vin3.t1 0.00374593
R236 vin3.n16 vin3.t2 0.00125388
R237 vout4.n9 vout4.t0 10.2939
R238 vout4.n8 vout4.t9 10.2939
R239 vout4.n7 vout4.t8 10.2939
R240 vout4.n6 vout4.t2 10.2939
R241 vout4.n5 vout4.t1 10.2939
R242 vout4.n4 vout4.t5 10.2939
R243 vout4.n3 vout4.t4 10.2939
R244 vout4.n2 vout4.t3 10.2939
R245 vout4.n1 vout4.t7 10.2939
R246 vout4.n0 vout4.t6 10.2933
R247 vout4.n9 vout4.t18 2.08789
R248 vout4.n8 vout4.t12 2.08789
R249 vout4.n7 vout4.t11 2.08789
R250 vout4.n6 vout4.t10 2.08789
R251 vout4.n5 vout4.t17 2.08789
R252 vout4.n4 vout4.t16 2.0693
R253 vout4.n3 vout4.t15 2.0693
R254 vout4.n2 vout4.t14 2.0693
R255 vout4.n1 vout4.t13 2.0693
R256 vout4.n0 vout4.t19 2.0693
R257 vout4.n9 vout4.n8 0.16242
R258 vout4.n8 vout4.n7 0.16242
R259 vout4.n7 vout4.n6 0.16242
R260 vout4.n6 vout4.n5 0.16242
R261 vout4.n5 vout4.n4 0.16242
R262 vout4.n4 vout4.n3 0.16242
R263 vout4.n3 vout4.n2 0.16242
R264 vout4.n2 vout4.n1 0.16242
R265 vout4.n1 vout4.n0 0.16242
R266 vout4 vout4.n9 0.0151667
R267 vin4.n19 vin4.t0 0.994013
R268 vin4.n17 vin4.n16 0.965665
R269 vin4.n28 vin4.n27 0.83231
R270 vin4.n9 vin4.n0 0.754036
R271 vin4.n20 vin4.n19 0.578786
R272 vin4.n21 vin4.n20 0.578786
R273 vin4.n22 vin4.n21 0.578786
R274 vin4.n23 vin4.n22 0.578786
R275 vin4.n24 vin4.n23 0.578786
R276 vin4.n25 vin4.n24 0.578786
R277 vin4.n26 vin4.n25 0.578786
R278 vin4.n27 vin4.n26 0.578786
R279 vin4.n17 vin4.n15 0.578786
R280 vin4.n15 vin4.n14 0.578786
R281 vin4.n14 vin4.n13 0.578786
R282 vin4.n13 vin4.n12 0.578786
R283 vin4.n12 vin4.n11 0.578786
R284 vin4.n11 vin4.n10 0.578786
R285 vin4.n10 vin4.n9 0.578786
R286 vin4.n20 vin4.n8 0.254024
R287 vin4.n21 vin4.n7 0.254024
R288 vin4.n22 vin4.n6 0.254024
R289 vin4.n23 vin4.n5 0.254024
R290 vin4.n24 vin4.n4 0.254024
R291 vin4.n25 vin4.n3 0.254024
R292 vin4.n26 vin4.n2 0.254024
R293 vin4.n27 vin4.n1 0.254024
R294 vin4.n9 vin4.n2 0.254024
R295 vin4.n10 vin4.n3 0.254024
R296 vin4.n11 vin4.n4 0.254024
R297 vin4.n12 vin4.n5 0.254024
R298 vin4.n13 vin4.n6 0.254024
R299 vin4.n14 vin4.n7 0.254024
R300 vin4.n15 vin4.n8 0.254024
R301 vin4.n19 vin4.n18 0.192615
R302 vin4.n18 vin4.n17 0.191641
R303 vin4.n18 vin4.n8 0.128842
R304 vin4.n8 vin4.n7 0.12194
R305 vin4.n7 vin4.n6 0.12194
R306 vin4.n6 vin4.n5 0.12194
R307 vin4.n5 vin4.n4 0.12194
R308 vin4.n4 vin4.n3 0.12194
R309 vin4.n3 vin4.n2 0.12194
R310 vin4.n2 vin4.n1 0.12194
R311 vin4.n28 vin4.n0 0.0847067
R312 vin4.n1 vin4.n0 0.0265126
R313 vin4 vin4.n28 0.00974
R314 vin4.n16 vin4.t1 0.00374593
R315 vin4.n16 vin4.t2 0.00125388
R316 VDD.n47 VDD.t8 17.0005
R317 VDD.t8 VDD.n14 17.0005
R318 VDD.t7 VDD.n46 17.0005
R319 VDD.t7 VDD.n45 17.0005
R320 VDD.t7 VDD.n44 17.0005
R321 VDD.t7 VDD.n43 17.0005
R322 VDD.t7 VDD.n42 17.0005
R323 VDD.t7 VDD.n41 17.0005
R324 VDD.t7 VDD.n40 17.0005
R325 VDD.t7 VDD.n12 17.0005
R326 VDD.t7 VDD.n39 17.0005
R327 VDD.t7 VDD.n37 17.0005
R328 VDD.t7 VDD.n36 17.0005
R329 VDD.t7 VDD.n35 17.0005
R330 VDD.t7 VDD.n34 17.0005
R331 VDD.t7 VDD.n33 17.0005
R332 VDD.n46 VDD.t8 17.0005
R333 VDD.n45 VDD.t8 17.0005
R334 VDD.n44 VDD.t8 17.0005
R335 VDD.n43 VDD.t8 17.0005
R336 VDD.n42 VDD.t8 17.0005
R337 VDD.n41 VDD.t8 17.0005
R338 VDD.n40 VDD.t8 17.0005
R339 VDD.n37 VDD.t8 17.0005
R340 VDD.n36 VDD.t8 17.0005
R341 VDD.n35 VDD.t8 17.0005
R342 VDD.n34 VDD.t8 17.0005
R343 VDD.n33 VDD.t8 17.0005
R344 VDD.n32 VDD.t8 17.0005
R345 VDD.t7 VDD.n32 17.0005
R346 VDD.t7 VDD.n14 17.0005
R347 VDD.n47 VDD.t7 17.0005
R348 VDD.n572 VDD.n30 17.0005
R349 VDD.n572 VDD.n29 17.0005
R350 VDD.n572 VDD.n28 17.0005
R351 VDD.n572 VDD.n27 17.0005
R352 VDD.n572 VDD.n26 17.0005
R353 VDD.n572 VDD.n25 17.0005
R354 VDD.n572 VDD.n24 17.0005
R355 VDD.n572 VDD.n23 17.0005
R356 VDD.n572 VDD.n22 17.0005
R357 VDD.n572 VDD.n21 17.0005
R358 VDD.n572 VDD.n20 17.0005
R359 VDD.n572 VDD.n19 17.0005
R360 VDD.n572 VDD.n18 17.0005
R361 VDD.n573 VDD.n572 17.0005
R362 VDD.n572 VDD.n13 17.0005
R363 VDD.n556 VDD.n555 17.0005
R364 VDD.n555 VDD.n554 17.0005
R365 VDD.n552 VDD.n551 17.0005
R366 VDD.n551 VDD.n550 17.0005
R367 VDD.n548 VDD.n547 17.0005
R368 VDD.n547 VDD.n546 17.0005
R369 VDD.n222 VDD.n215 17.0005
R370 VDD.n223 VDD.n222 17.0005
R371 VDD.n226 VDD.n225 17.0005
R372 VDD.n227 VDD.n226 17.0005
R373 VDD.n230 VDD.n229 17.0005
R374 VDD.n231 VDD.n230 17.0005
R375 VDD.n234 VDD.n233 17.0005
R376 VDD.n235 VDD.n234 17.0005
R377 VDD.n237 VDD.n236 17.0005
R378 VDD.n238 VDD.n237 17.0005
R379 VDD.n541 VDD.n540 17.0005
R380 VDD.n538 VDD.n537 17.0005
R381 VDD.n535 VDD.n534 17.0005
R382 VDD.n534 VDD.n533 17.0005
R383 VDD.n532 VDD.n531 17.0005
R384 VDD.n531 VDD.n530 17.0005
R385 VDD.n496 VDD.n493 17.0005
R386 VDD.n497 VDD.n496 17.0005
R387 VDD.n501 VDD.n500 17.0005
R388 VDD.n502 VDD.n501 17.0005
R389 VDD.n506 VDD.n505 17.0005
R390 VDD.n507 VDD.n506 17.0005
R391 VDD.n512 VDD.n511 17.0005
R392 VDD.n513 VDD.n512 17.0005
R393 VDD.n517 VDD.n516 17.0005
R394 VDD.n518 VDD.n517 17.0005
R395 VDD.n526 VDD.n520 17.0005
R396 VDD.n527 VDD.n526 17.0005
R397 VDD.n340 VDD.n339 17.0005
R398 VDD.n341 VDD.n340 17.0005
R399 VDD.n344 VDD.n343 17.0005
R400 VDD.n345 VDD.n344 17.0005
R401 VDD.n347 VDD.n346 17.0005
R402 VDD.n348 VDD.n347 17.0005
R403 VDD.n350 VDD.n349 17.0005
R404 VDD.n351 VDD.n350 17.0005
R405 VDD.n353 VDD.n352 17.0005
R406 VDD.n354 VDD.n353 17.0005
R407 VDD.n356 VDD.n355 17.0005
R408 VDD.n357 VDD.n356 17.0005
R409 VDD.n359 VDD.n358 17.0005
R410 VDD.n360 VDD.n359 17.0005
R411 VDD.n363 VDD.n362 17.0005
R412 VDD.n364 VDD.n363 17.0005
R413 VDD.n366 VDD.n365 17.0005