* PEX produced on Tue May  5 11:31:56 PM CEST 2026 using /foss/tools/sak/sak-pex.sh with m=3 and s=1
* NGSPICE file created from inverter_top_pex.ext - technology: ihp-sg13g2

.subckt inverter_top_pex VDD vin4 vout4 VSS vin3 vout3 vin2 vout2 vout1 vin1
X0 VDD.t16 vin4.t0 vout4.t5 VDD.t0 sg13_lv_pmos ad=1.14p pd=6.38u as=1.14p ps=6.38u w=6u l=1u
X1 VDD.t41 VDD.t95 VDD.t41 VDD.t21 sg13_lv_pmos ad=1.14p pd=6.38u as=0 ps=0 w=6u l=1u
X2 vout2.t11 vin2.t2 VSS.t72 VSS.t73 sg13_lv_nmos ad=0.19p pd=1.38u as=0.19p ps=1.38u w=1u l=1u
X3 vout3.t15 vin3.t2 VDD.t65 VDD.t0 sg13_lv_pmos ad=1.14p pd=6.38u as=1.14p ps=6.38u w=6u l=1u
X4 vout3.t2 vin3.t0 VSS.t38 VSS.t55 sg13_lv_nmos ad=0.19p pd=1.38u as=0.19p ps=1.38u w=1u l=1u
X5 vout2.t14 vin2.t2 VSS.t66 VSS.t67 sg13_lv_nmos ad=0.19p pd=1.38u as=0.19p ps=1.38u w=1u l=1u
X6 vout4.t18 vin4.t2 VSS.t3 VSS.t4 sg13_lv_nmos ad=0.19p pd=1.38u as=0.19p ps=1.38u w=1u l=1u
X7 VDD.t41 vin2.t0 vout2.t3 VDD.t21 sg13_lv_pmos ad=1.14p pd=6.38u as=1.14p ps=6.38u w=6u l=1u
X8 vout4.t8 vin4.t0 VDD.t18 VDD.t0 sg13_lv_pmos ad=1.14p pd=6.38u as=1.14p ps=6.38u w=6u l=1u
X9 VSS.t72 vin2.t2 vout2.t19 VSS.t71 sg13_lv_nmos ad=0.19p pd=1.38u as=0.19p ps=1.38u w=1u l=1u
X10 vout2.t12 vin2.t2 VSS.t75 VSS.t76 sg13_lv_nmos ad=0.19p pd=1.38u as=0.19p ps=1.38u w=1u l=1u
X11 VSS.t9 vin4.t2 vout4.t10 VSS.t8 sg13_lv_nmos ad=0.19p pd=1.38u as=0.19p ps=1.38u w=1u l=1u
X12 vout1.t15 vin1.t0 VSS.t107 VSS.t108 sg13_lv_nmos ad=0.19p pd=1.38u as=0.19p ps=1.38u w=1u l=1u
X13 vout2.t4 vin2.t0 VDD.t23 VDD.t21 sg13_lv_pmos ad=1.14p pd=6.38u as=1.14p ps=6.38u w=6u l=1u
X14 VDD.t27 vin2.t0 vout2.t5 VDD.t21 sg13_lv_pmos ad=1.14p pd=6.38u as=1.14p ps=6.38u w=6u l=1u
X15 vout4.t12 vin4.t2 VSS.t1 VSS.t0 sg13_lv_nmos ad=0.19p pd=1.38u as=0.19p ps=1.38u w=1u l=1u
X16 VDD.t23 vin2.t0 vout2.t9 VDD.t21 sg13_lv_pmos ad=1.14p pd=6.38u as=1.14p ps=6.38u w=6u l=1u
X17 VSS.t130 vin3.t0 vout3.t6 VSS.t80 sg13_lv_nmos ad=0.19p pd=1.38u as=0.19p ps=1.38u w=1u l=1u
X18 vout4.t13 vin4.t2 VSS.t18 VSS.t19 sg13_lv_nmos ad=0.19p pd=1.38u as=0.19p ps=1.38u w=1u l=1u
X19 VSS.t12 vin4.t2 vout4.t11 VSS.t11 sg13_lv_nmos ad=0.19p pd=1.38u as=0.19p ps=1.38u w=1u l=1u
X20 VDD.t65 vin3.t2 vout3.t14 VDD.t0 sg13_lv_pmos ad=1.14p pd=6.38u as=1.14p ps=6.38u w=6u l=1u
X21 vout3.t18 vin3.t2 VDD.t67 VDD.t0 sg13_lv_pmos ad=1.14p pd=6.38u as=1.14p ps=6.38u w=6u l=1u
X22 VDD.t37 vin2.t0 vout2.t1 VDD.t21 sg13_lv_pmos ad=1.14p pd=6.38u as=1.14p ps=6.38u w=6u l=1u
X23 VSS.t66 vin2.t2 vout2.t13 VSS.t65 sg13_lv_nmos ad=0.19p pd=1.38u as=0.19p ps=1.38u w=1u l=1u
X24 VDD.t71 vin3.t2 vout3.t19 VDD.t0 sg13_lv_pmos ad=1.14p pd=6.38u as=1.14p ps=6.38u w=6u l=1u
X25 VSS.t39 VSS.t36 VSS.t38 VSS.t37 sg13_lv_nmos ad=0.34p pd=2.68u as=0 ps=0 w=1u l=1u
X26 vout2.t3 vin2.t0 VDD.t39 VDD.t21 sg13_lv_pmos ad=1.14p pd=6.38u as=1.14p ps=6.38u w=6u l=1u
X27 vout2.t19 vin2.t2 VSS.t69 VSS.t70 sg13_lv_nmos ad=0.19p pd=1.38u as=0.19p ps=1.38u w=1u l=1u
X28 VSS.t75 vin2.t2 vout2.t11 VSS.t74 sg13_lv_nmos ad=0.19p pd=1.38u as=0.19p ps=1.38u w=1u l=1u
X29 vout4.t19 vin4.t2 VSS.t15 VSS.t16 sg13_lv_nmos ad=0.19p pd=1.38u as=0.19p ps=1.38u w=1u l=1u
X30 vout1.t13 vin1.t0 VSS.t101 VSS.t102 sg13_lv_nmos ad=0.19p pd=1.38u as=0.19p ps=1.38u w=1u l=1u
X31 vout1.t6 vin1.t2 VDD.t45 VDD.t21 sg13_lv_pmos ad=1.14p pd=6.38u as=1.14p ps=6.38u w=6u l=1u
X32 vout1.t11 vin1.t0 VSS.t95 VSS.t96 sg13_lv_nmos ad=0.19p pd=1.38u as=0.19p ps=1.38u w=1u l=1u
X33 VSS.t101 vin1.t0 vout1.t12 VSS.t100 sg13_lv_nmos ad=0.19p pd=1.38u as=0.19p ps=1.38u w=1u l=1u
X34 VSS.t21 vin4.t2 vout4.t13 VSS.t20 sg13_lv_nmos ad=0.19p pd=1.38u as=0.19p ps=1.38u w=1u l=1u
X35 VDD.t4 vin4.t0 vout4.t6 VDD.t0 sg13_lv_pmos ad=1.14p pd=6.38u as=1.14p ps=6.38u w=6u l=1u
X36 VDD.t81 VDD.t90 VDD.t81 VDD.t0 sg13_lv_pmos ad=1.14p pd=6.38u as=0 ps=0 w=6u l=1u
X37 vout1.t14 vin1.t0 VSS.t104 VSS.t105 sg13_lv_nmos ad=0.19p pd=1.38u as=0.19p ps=1.38u w=1u l=1u
X38 vout2.t9 vin2.t0 VDD.t22 VDD.t21 sg13_lv_pmos ad=1.14p pd=6.38u as=1.14p ps=6.38u w=6u l=1u
X39 vout3.t6 vin3.t0 VSS.t128 VSS.t79 sg13_lv_nmos ad=0.19p pd=1.38u as=0.19p ps=1.38u w=1u l=1u
X40 VDD.t81 vin3.t1 vout3.t10 VDD.t0 sg13_lv_pmos ad=1.14p pd=6.38u as=1.14p ps=6.38u w=6u l=1u
X41 vout4.t2 vin4.t0 VDD.t6 VDD.t0 sg13_lv_pmos ad=1.14p pd=6.38u as=1.14p ps=6.38u w=6u l=1u
X42 VDD.t2 vin4.t0 vout4.t7 VDD.t0 sg13_lv_pmos ad=1.14p pd=6.38u as=1.14p ps=6.38u w=6u l=1u
X43 vout3.t14 vin3.t2 VDD.t63 VDD.t0 sg13_lv_pmos ad=1.14p pd=6.38u as=1.14p ps=6.38u w=6u l=1u
X44 VSS.t30 VSS.t34 VSS.t30 VSS.t35 sg13_lv_nmos ad=0.19p pd=1.38u as=0 ps=0 w=1u l=1u
X45 VDD.t67 vin3.t2 vout3.t15 VDD.t0 sg13_lv_pmos ad=1.14p pd=6.38u as=1.14p ps=6.38u w=6u l=1u
X46 VDD.t10 vin4.t0 vout4.t3 VDD.t0 sg13_lv_pmos ad=1.14p pd=6.38u as=1.14p ps=6.38u w=6u l=1u
X47 VDD.t39 vin2.t0 vout2.t2 VDD.t21 sg13_lv_pmos ad=1.14p pd=6.38u as=1.14p ps=6.38u w=6u l=1u
X48 VSS.t24 vin4.t2 vout4.t14 VSS.t23 sg13_lv_nmos ad=0.19p pd=1.38u as=0.19p ps=1.38u w=1u l=1u
X49 VDD.t63 vin3.t2 vout3.t11 VDD.t0 sg13_lv_pmos ad=1.14p pd=6.38u as=1.14p ps=6.38u w=6u l=1u
X50 VDD.t45 vin1.t2 vout1.t5 VDD.t21 sg13_lv_pmos ad=1.14p pd=6.38u as=1.14p ps=6.38u w=6u l=1u
X51 VSS.t95 vin1.t0 vout1.t10 VSS.t94 sg13_lv_nmos ad=0.19p pd=1.38u as=0.19p ps=1.38u w=1u l=1u
X52 vout1.t1 vin1.t2 VDD.t47 VDD.t21 sg13_lv_pmos ad=1.14p pd=6.38u as=1.14p ps=6.38u w=6u l=1u
X53 vout4.t16 vin4.t2 VSS.t27 VSS.t28 sg13_lv_nmos ad=0.19p pd=1.38u as=0.19p ps=1.38u w=1u l=1u
X54 vout4.t3 vin4.t0 VDD.t8 VDD.t0 sg13_lv_pmos ad=1.14p pd=6.38u as=1.14p ps=6.38u w=6u l=1u
X55 vout1.t12 vin1.t0 VSS.t98 VSS.t99 sg13_lv_nmos ad=0.19p pd=1.38u as=0.19p ps=1.38u w=1u l=1u
X56 VDD.t51 vin1.t2 vout1.t2 VDD.t21 sg13_lv_pmos ad=1.14p pd=6.38u as=1.14p ps=6.38u w=6u l=1u
X57 VSS.t104 vin1.t0 vout1.t13 VSS.t103 sg13_lv_nmos ad=0.19p pd=1.38u as=0.19p ps=1.38u w=1u l=1u
X58 vout4.t9 vin4.t0 VDD.t16 VDD.t0 sg13_lv_pmos ad=1.14p pd=6.38u as=1.14p ps=6.38u w=6u l=1u
X59 vout3.t5 vin3.t0 VSS.t124 VSS.t73 sg13_lv_nmos ad=0.19p pd=1.38u as=0.19p ps=1.38u w=1u l=1u
X60 VDD.t94 VDD.t92 VDD.t22 VDD.t21 sg13_lv_pmos ad=2.04p pd=12.68u as=0 ps=0 w=6u l=1u
X61 VDD.t77 vin3.t2 vout3.t12 VDD.t0 sg13_lv_pmos ad=1.14p pd=6.38u as=1.14p ps=6.38u w=6u l=1u
X62 VDD.t12 vin4.t0 vout4.t0 VDD.t0 sg13_lv_pmos ad=1.14p pd=6.38u as=1.14p ps=6.38u w=6u l=1u
X63 vout3.t10 vin3.t2 VDD.t79 VDD.t0 sg13_lv_pmos ad=1.14p pd=6.38u as=1.14p ps=6.38u w=6u l=1u
X64 vout3.t9 vin3.t0 VSS.t120 VSS.t67 sg13_lv_nmos ad=0.19p pd=1.38u as=0.19p ps=1.38u w=1u l=1u
X65 VSS.t124 vin3.t0 vout3.t4 VSS.t71 sg13_lv_nmos ad=0.19p pd=1.38u as=0.19p ps=1.38u w=1u l=1u
X66 VDD.t61 VDD.t100 VDD.t61 VDD.t21 sg13_lv_pmos ad=1.14p pd=6.38u as=0 ps=0 w=6u l=1u
X67 vout3.t8 vin3.t0 VSS.t126 VSS.t76 sg13_lv_nmos ad=0.19p pd=1.38u as=0.19p ps=1.38u w=1u l=1u
X68 vout4.t5 vin4.t0 VDD.t14 VDD.t0 sg13_lv_pmos ad=1.14p pd=6.38u as=1.14p ps=6.38u w=6u l=1u
X69 vout3.t11 vin3.t2 VDD.t62 VDD.t0 sg13_lv_pmos ad=1.14p pd=6.38u as=1.14p ps=6.38u w=6u l=1u
X70 VDD.t61 vin1.t1 vout1.t0 VDD.t21 sg13_lv_pmos ad=1.14p pd=6.38u as=1.14p ps=6.38u w=6u l=1u
X71 vout2.t2 vin2.t0 VDD.t37 VDD.t21 sg13_lv_pmos ad=1.14p pd=6.38u as=1.14p ps=6.38u w=6u l=1u
X72 vout1.t5 vin1.t2 VDD.t43 VDD.t21 sg13_lv_pmos ad=1.14p pd=6.38u as=1.14p ps=6.38u w=6u l=1u
X73 vout2.t18 vin2.t2 VSS.t60 VSS.t61 sg13_lv_nmos ad=0.19p pd=1.38u as=0.19p ps=1.38u w=1u l=1u
X74 VDD.t47 vin1.t2 vout1.t6 VDD.t21 sg13_lv_pmos ad=1.14p pd=6.38u as=1.14p ps=6.38u w=6u l=1u
X75 VDD.t43 vin1.t2 vout1.t9 VDD.t21 sg13_lv_pmos ad=1.14p pd=6.38u as=1.14p ps=6.38u w=6u l=1u
X76 VDD.t79 vin3.t2 vout3.t13 VDD.t0 sg13_lv_pmos ad=1.14p pd=6.38u as=1.14p ps=6.38u w=6u l=1u
X77 VSS.t120 vin3.t0 vout3.t1 VSS.t65 sg13_lv_nmos ad=0.19p pd=1.38u as=0.19p ps=1.38u w=1u l=1u
X78 VSS.t6 vin4.t2 vout4.t18 VSS.t5 sg13_lv_nmos ad=0.19p pd=1.38u as=0.19p ps=1.38u w=1u l=1u
X79 vout3.t4 vin3.t0 VSS.t122 VSS.t70 sg13_lv_nmos ad=0.19p pd=1.38u as=0.19p ps=1.38u w=1u l=1u
X80 VDD.t20 vin4.t0 vout4.t8 VDD.t0 sg13_lv_pmos ad=1.14p pd=6.38u as=1.14p ps=6.38u w=6u l=1u
X81 VSS.t126 vin3.t0 vout3.t5 VSS.t74 sg13_lv_nmos ad=0.19p pd=1.38u as=0.19p ps=1.38u w=1u l=1u
X82 VDD.t57 vin1.t2 vout1.t3 VDD.t21 sg13_lv_pmos ad=1.14p pd=6.38u as=1.14p ps=6.38u w=6u l=1u
X83 vout2.t0 vin2.t0 VDD.t33 VDD.t21 sg13_lv_pmos ad=1.14p pd=6.38u as=1.14p ps=6.38u w=6u l=1u
X84 vout4.t11 vin4.t2 VSS.t9 VSS.t10 sg13_lv_nmos ad=0.19p pd=1.38u as=0.19p ps=1.38u w=1u l=1u
X85 vout1.t0 vin1.t2 VDD.t59 VDD.t21 sg13_lv_pmos ad=1.14p pd=6.38u as=1.14p ps=6.38u w=6u l=1u
X86 VSS.t3 vin4.t2 vout4.t12 VSS.t2 sg13_lv_nmos ad=0.19p pd=1.38u as=0.19p ps=1.38u w=1u l=1u
X87 vout2.t6 vin2.t0 VDD.t29 VDD.t21 sg13_lv_pmos ad=1.14p pd=6.38u as=1.14p ps=6.38u w=6u l=1u
X88 VDD.t89 VDD.t87 VDD.t62 VDD.t0 sg13_lv_pmos ad=2.04p pd=12.68u as=0 ps=0 w=6u l=1u
X89 VSS.t15 vin4.t2 vout4.t17 VSS.t14 sg13_lv_nmos ad=0.19p pd=1.38u as=0.19p ps=1.38u w=1u l=1u
X90 VDD.t33 vin2.t0 vout2.t7 VDD.t21 sg13_lv_pmos ad=1.14p pd=6.38u as=1.14p ps=6.38u w=6u l=1u
X91 VSS.t60 vin2.t2 vout2.t17 VSS.t59 sg13_lv_nmos ad=0.19p pd=1.38u as=0.19p ps=1.38u w=1u l=1u
X92 VDD.t84 VDD.t82 VDD.t1 VDD.t0 sg13_lv_pmos ad=2.04p pd=12.68u as=0 ps=0 w=6u l=1u
X93 vout2.t1 vin2.t0 VDD.t35 VDD.t21 sg13_lv_pmos ad=1.14p pd=6.38u as=1.14p ps=6.38u w=6u l=1u
X94 vout2.t13 vin2.t2 VSS.t63 VSS.t64 sg13_lv_nmos ad=0.19p pd=1.38u as=0.19p ps=1.38u w=1u l=1u
X95 VSS.t69 vin2.t2 vout2.t14 VSS.t68 sg13_lv_nmos ad=0.19p pd=1.38u as=0.19p ps=1.38u w=1u l=1u
X96 vout1.t9 vin1.t2 VDD.t42 VDD.t21 sg13_lv_pmos ad=1.14p pd=6.38u as=1.14p ps=6.38u w=6u l=1u
X97 vout1.t17 vin1.t0 VSS.t89 VSS.t90 sg13_lv_nmos ad=0.19p pd=1.38u as=0.19p ps=1.38u w=1u l=1u
X98 vout4.t17 vin4.t2 VSS.t12 VSS.t13 sg13_lv_nmos ad=0.19p pd=1.38u as=0.19p ps=1.38u w=1u l=1u
X99 vout3.t13 vin3.t2 VDD.t77 VDD.t0 sg13_lv_pmos ad=1.14p pd=6.38u as=1.14p ps=6.38u w=6u l=1u
X100 vout4.t15 vin4.t2 VSS.t24 VSS.t25 sg13_lv_nmos ad=0.19p pd=1.38u as=0.19p ps=1.38u w=1u l=1u
X101 VSS.t47 VSS.t46 VSS.t47 VSS.t41 sg13_lv_nmos ad=0.19p pd=1.38u as=0 ps=0 w=1u l=1u
X102 VSS.t18 vin4.t2 vout4.t19 VSS.t17 sg13_lv_nmos ad=0.19p pd=1.38u as=0.19p ps=1.38u w=1u l=1u
X103 VDD.t59 vin1.t2 vout1.t4 VDD.t21 sg13_lv_pmos ad=1.14p pd=6.38u as=1.14p ps=6.38u w=6u l=1u
X104 VSS.t47 vin2.t1 vout2.t10 VSS.t83 sg13_lv_nmos ad=0.19p pd=1.38u as=0.19p ps=1.38u w=1u l=1u
X105 VDD.t29 vin2.t0 vout2.t8 VDD.t21 sg13_lv_pmos ad=1.14p pd=6.38u as=1.14p ps=6.38u w=6u l=1u
X106 vout4.t14 vin4.t2 VSS.t21 VSS.t22 sg13_lv_nmos ad=0.19p pd=1.38u as=0.19p ps=1.38u w=1u l=1u
X107 vout2.t7 vin2.t0 VDD.t31 VDD.t21 sg13_lv_pmos ad=1.14p pd=6.38u as=1.14p ps=6.38u w=6u l=1u
X108 vout4.t4 vin4.t0 VDD.t4 VDD.t0 sg13_lv_pmos ad=1.14p pd=6.38u as=1.14p ps=6.38u w=6u l=1u
X109 VDD.t35 vin2.t0 vout2.t0 VDD.t21 sg13_lv_pmos ad=1.14p pd=6.38u as=1.14p ps=6.38u w=6u l=1u
X110 vout2.t17 vin2.t2 VSS.t57 VSS.t58 sg13_lv_nmos ad=0.19p pd=1.38u as=0.19p ps=1.38u w=1u l=1u
X111 VSS.t63 vin2.t2 vout2.t18 VSS.t62 sg13_lv_nmos ad=0.19p pd=1.38u as=0.19p ps=1.38u w=1u l=1u
X112 VDD.t18 vin4.t0 vout4.t9 VDD.t0 sg13_lv_pmos ad=1.14p pd=6.38u as=1.14p ps=6.38u w=6u l=1u
X113 VSS.t57 vin2.t2 vout2.t16 VSS.t56 sg13_lv_nmos ad=0.19p pd=1.38u as=0.19p ps=1.38u w=1u l=1u
X114 VDD.t99 VDD.t97 VDD.t42 VDD.t21 sg13_lv_pmos ad=2.04p pd=12.68u as=0 ps=0 w=6u l=1u
X115 vout3.t17 vin3.t2 VDD.t73 VDD.t0 sg13_lv_pmos ad=1.14p pd=6.38u as=1.14p ps=6.38u w=6u l=1u
X116 VSS.t89 vin1.t0 vout1.t16 VSS.t88 sg13_lv_nmos ad=0.19p pd=1.38u as=0.19p ps=1.38u w=1u l=1u
X117 vout1.t10 vin1.t0 VSS.t92 VSS.t93 sg13_lv_nmos ad=0.19p pd=1.38u as=0.19p ps=1.38u w=1u l=1u
X118 VSS.t98 vin1.t0 vout1.t11 VSS.t97 sg13_lv_nmos ad=0.19p pd=1.38u as=0.19p ps=1.38u w=1u l=1u
X119 vout3.t19 vin3.t2 VDD.t69 VDD.t0 sg13_lv_pmos ad=1.14p pd=6.38u as=1.14p ps=6.38u w=6u l=1u
X120 VDD.t73 vin3.t2 vout3.t16 VDD.t0 sg13_lv_pmos ad=1.14p pd=6.38u as=1.14p ps=6.38u w=6u l=1u
X121 vout3.t12 vin3.t2 VDD.t75 VDD.t0 sg13_lv_pmos ad=1.14p pd=6.38u as=1.14p ps=6.38u w=6u l=1u
X122 vout3.t0 vin3.t0 VSS.t116 VSS.t61 sg13_lv_nmos ad=0.19p pd=1.38u as=0.19p ps=1.38u w=1u l=1u
X123 VSS.t78 vin2.t2 vout2.t12 VSS.t77 sg13_lv_nmos ad=0.19p pd=1.38u as=0.19p ps=1.38u w=1u l=1u
X124 vout2.t10 vin2.t2 VSS.t81 VSS.t82 sg13_lv_nmos ad=0.19p pd=1.38u as=0.19p ps=1.38u w=1u l=1u
X125 VSS.t30 vin4.t1 vout4.t16 VSS.t29 sg13_lv_nmos ad=0.19p pd=1.38u as=0.19p ps=1.38u w=1u l=1u
X126 VSS.t54 VSS.t52 VSS.t54 VSS.t53 sg13_lv_nmos ad=0.19p pd=1.38u as=0 ps=0 w=1u l=1u
X127 vout1.t4 vin1.t2 VDD.t57 VDD.t21 sg13_lv_pmos ad=1.14p pd=6.38u as=1.14p ps=6.38u w=6u l=1u
X128 VSS.t54 vin1.t0 vout1.t18 VSS.t112 sg13_lv_nmos ad=0.19p pd=1.38u as=0.19p ps=1.38u w=1u l=1u
X129 vout2.t16 vin2.t2 VSS.t44 VSS.t55 sg13_lv_nmos ad=0.19p pd=1.38u as=0.19p ps=1.38u w=1u l=1u
X130 vout1.t16 vin1.t0 VSS.t86 VSS.t87 sg13_lv_nmos ad=0.19p pd=1.38u as=0.19p ps=1.38u w=1u l=1u
X131 VSS.t33 VSS.t31 VSS.t1 VSS.t32 sg13_lv_nmos ad=0.34p pd=2.68u as=0 ps=0 w=1u l=1u
X132 VSS.t92 vin1.t0 vout1.t17 VSS.t91 sg13_lv_nmos ad=0.19p pd=1.38u as=0.19p ps=1.38u w=1u l=1u
X133 VDD.t69 vin3.t2 vout3.t18 VDD.t0 sg13_lv_pmos ad=1.14p pd=6.38u as=1.14p ps=6.38u w=6u l=1u
X134 vout3.t16 vin3.t2 VDD.t71 VDD.t0 sg13_lv_pmos ad=1.14p pd=6.38u as=1.14p ps=6.38u w=6u l=1u
X135 VSS.t86 vin1.t0 vout1.t19 VSS.t85 sg13_lv_nmos ad=0.19p pd=1.38u as=0.19p ps=1.38u w=1u l=1u
X136 vout4.t6 vin4.t0 VDD.t2 VDD.t0 sg13_lv_pmos ad=1.14p pd=6.38u as=1.14p ps=6.38u w=6u l=1u
X137 VSS.t116 vin3.t0 vout3.t3 VSS.t59 sg13_lv_nmos ad=0.19p pd=1.38u as=0.19p ps=1.38u w=1u l=1u
X138 VDD.t75 vin3.t2 vout3.t17 VDD.t0 sg13_lv_pmos ad=1.14p pd=6.38u as=1.14p ps=6.38u w=6u l=1u
X139 vout1.t8 vin1.t2 VDD.t53 VDD.t21 sg13_lv_pmos ad=1.14p pd=6.38u as=1.14p ps=6.38u w=6u l=1u
X140 vout3.t1 vin3.t0 VSS.t118 VSS.t64 sg13_lv_nmos ad=0.19p pd=1.38u as=0.19p ps=1.38u w=1u l=1u
X141 VSS.t81 vin2.t2 vout2.t15 VSS.t80 sg13_lv_nmos ad=0.19p pd=1.38u as=0.19p ps=1.38u w=1u l=1u
X142 VSS.t122 vin3.t0 vout3.t9 VSS.t68 sg13_lv_nmos ad=0.19p pd=1.38u as=0.19p ps=1.38u w=1u l=1u
X143 VDD.t6 vin4.t0 vout4.t4 VDD.t0 sg13_lv_pmos ad=1.14p pd=6.38u as=1.14p ps=6.38u w=6u l=1u
X144 vout1.t2 vin1.t2 VDD.t49 VDD.t21 sg13_lv_pmos ad=1.14p pd=6.38u as=1.14p ps=6.38u w=6u l=1u
X145 vout4.t7 vin4.t0 VDD.t1 VDD.t0 sg13_lv_pmos ad=1.14p pd=6.38u as=1.14p ps=6.38u w=6u l=1u
X146 VDD.t53 vin1.t2 vout1.t7 VDD.t21 sg13_lv_pmos ad=1.14p pd=6.38u as=1.14p ps=6.38u w=6u l=1u
X147 VSS.t107 vin1.t0 vout1.t14 VSS.t106 sg13_lv_nmos ad=0.19p pd=1.38u as=0.19p ps=1.38u w=1u l=1u
X148 vout1.t3 vin1.t2 VDD.t55 VDD.t21 sg13_lv_pmos ad=1.14p pd=6.38u as=1.14p ps=6.38u w=6u l=1u
X149 vout1.t18 vin1.t0 VSS.t110 VSS.t111 sg13_lv_nmos ad=0.19p pd=1.38u as=0.19p ps=1.38u w=1u l=1u
X150 vout2.t5 vin2.t0 VDD.t25 VDD.t21 sg13_lv_pmos ad=1.14p pd=6.38u as=1.14p ps=6.38u w=6u l=1u
X151 VSS.t42 VSS.t40 VSS.t42 VSS.t41 sg13_lv_nmos ad=0.19p pd=1.38u as=0 ps=0 w=1u l=1u
X152 vout4.t10 vin4.t2 VSS.t6 VSS.t7 sg13_lv_nmos ad=0.19p pd=1.38u as=0.19p ps=1.38u w=1u l=1u
X153 VSS.t45 VSS.t43 VSS.t44 VSS.t37 sg13_lv_nmos ad=0.34p pd=2.68u as=0 ps=0 w=1u l=1u
X154 vout4.t1 vin4.t0 VDD.t12 VDD.t0 sg13_lv_pmos ad=1.14p pd=6.38u as=1.14p ps=6.38u w=6u l=1u
X155 VSS.t27 vin4.t2 vout4.t15 VSS.t26 sg13_lv_nmos ad=0.19p pd=1.38u as=0.19p ps=1.38u w=1u l=1u
X156 VSS.t42 vin3.t0 vout3.t7 VSS.t83 sg13_lv_nmos ad=0.19p pd=1.38u as=0.19p ps=1.38u w=1u l=1u
X157 VDD.t8 vin4.t0 vout4.t2 VDD.t0 sg13_lv_pmos ad=1.14p pd=6.38u as=1.14p ps=6.38u w=6u l=1u
X158 vout1.t19 vin1.t0 VSS.t50 VSS.t84 sg13_lv_nmos ad=0.19p pd=1.38u as=0.19p ps=1.38u w=1u l=1u
X159 vout3.t3 vin3.t0 VSS.t114 VSS.t58 sg13_lv_nmos ad=0.19p pd=1.38u as=0.19p ps=1.38u w=1u l=1u
X160 VSS.t118 vin3.t0 vout3.t0 VSS.t62 sg13_lv_nmos ad=0.19p pd=1.38u as=0.19p ps=1.38u w=1u l=1u
X161 vout4.t0 vin4.t0 VDD.t10 VDD.t0 sg13_lv_pmos ad=1.14p pd=6.38u as=1.14p ps=6.38u w=6u l=1u
X162 vout2.t15 vin2.t2 VSS.t78 VSS.t79 sg13_lv_nmos ad=0.19p pd=1.38u as=0.19p ps=1.38u w=1u l=1u
X163 VDD.t49 vin1.t2 vout1.t1 VDD.t21 sg13_lv_pmos ad=1.14p pd=6.38u as=1.14p ps=6.38u w=6u l=1u
X164 VSS.t114 vin3.t0 vout3.t2 VSS.t56 sg13_lv_nmos ad=0.19p pd=1.38u as=0.19p ps=1.38u w=1u l=1u
X165 vout1.t7 vin1.t2 VDD.t51 VDD.t21 sg13_lv_pmos ad=1.14p pd=6.38u as=1.14p ps=6.38u w=6u l=1u
X166 VDD.t14 vin4.t0 vout4.t1 VDD.t0 sg13_lv_pmos ad=1.14p pd=6.38u as=1.14p ps=6.38u w=6u l=1u
X167 VSS.t110 vin1.t0 vout1.t15 VSS.t109 sg13_lv_nmos ad=0.19p pd=1.38u as=0.19p ps=1.38u w=1u l=1u
X168 VDD.t55 vin1.t2 vout1.t8 VDD.t21 sg13_lv_pmos ad=1.14p pd=6.38u as=1.14p ps=6.38u w=6u l=1u
X169 VDD.t25 vin2.t0 vout2.t4 VDD.t21 sg13_lv_pmos ad=1.14p pd=6.38u as=1.14p ps=6.38u w=6u l=1u
X170 vout2.t8 vin2.t0 VDD.t27 VDD.t21 sg13_lv_pmos ad=1.14p pd=6.38u as=1.14p ps=6.38u w=6u l=1u
X171 VDD.t31 vin2.t0 vout2.t6 VDD.t21 sg13_lv_pmos ad=1.14p pd=6.38u as=1.14p ps=6.38u w=6u l=1u
X172 VSS.t128 vin3.t0 vout3.t8 VSS.t77 sg13_lv_nmos ad=0.19p pd=1.38u as=0.19p ps=1.38u w=1u l=1u
X173 vout3.t7 vin3.t0 VSS.t130 VSS.t82 sg13_lv_nmos ad=0.19p pd=1.38u as=0.19p ps=1.38u w=1u l=1u
X174 VDD.t20 VDD.t85 VDD.t20 VDD.t0 sg13_lv_pmos ad=1.14p pd=6.38u as=0 ps=0 w=6u l=1u
X175 VSS.t51 VSS.t48 VSS.t50 VSS.t49 sg13_lv_nmos ad=0.34p pd=2.68u as=0 ps=0 w=1u l=1u
R0 vout1.n9 vout1.t18 10.2939
R1 vout1.n8 vout1.t15 10.2939
R2 vout1.n7 vout1.t14 10.2939
R3 vout1.n6 vout1.t13 10.2939
R4 vout1.n5 vout1.t12 10.2939
R5 vout1.n4 vout1.t11 10.2939
R6 vout1.n3 vout1.t10 10.2939
R7 vout1.n2 vout1.t17 10.2939
R8 vout1.n1 vout1.t16 10.2939
R9 vout1.n0 vout1.t19 10.2939
R10 vout1.n9 vout1.t0 2.0884
R11 vout1.n8 vout1.t4 2.0884
R12 vout1.n7 vout1.t3 2.0884
R13 vout1.n6 vout1.t8 2.0884
R14 vout1.n5 vout1.t7 2.0884
R15 vout1.n4 vout1.t2 2.0693
R16 vout1.n3 vout1.t1 2.0693
R17 vout1.n2 vout1.t6 2.0693
R18 vout1.n1 vout1.t5 2.0693
R19 vout1.n0 vout1.t9 2.06738
R20 vout1.n9 vout1.n8 0.16242
R21 vout1.n8 vout1.n7 0.16242
R22 vout1.n7 vout1.n6 0.16242
R23 vout1.n6 vout1.n5 0.16242
R24 vout1.n5 vout1.n4 0.16242
R25 vout1.n4 vout1.n3 0.16242
R26 vout1.n3 vout1.n2 0.16242
R27 vout1.n2 vout1.n1 0.16242
R28 vout1.n1 vout1.n0 0.16242
R29 vout1 vout1.n9 0.0151667
R30 vin1.n19 vin1.t0 0.994013
R31 vin1.n17 vin1.n16 0.965665
R32 vin1.n28 vin1.n27 0.83231
R33 vin1.n9 vin1.n0 0.754036
R34 vin1.n20 vin1.n19 0.578786
R35 vin1.n21 vin1.n20 0.578786
R36 vin1.n22 vin1.n21 0.578786
R37 vin1.n23 vin1.n22 0.578786
R38 vin1.n24 vin1.n23 0.578786
R39 vin1.n25 vin1.n24 0.578786
R40 vin1.n26 vin1.n25 0.578786
R41 vin1.n27 vin1.n26 0.578786
R42 vin1.n17 vin1.n15 0.578786
R43 vin1.n15 vin1.n14 0.578786
R44 vin1.n14 vin1.n13 0.578786
R45 vin1.n13 vin1.n12 0.578786
R46 vin1.n12 vin1.n11 0.578786
R47 vin1.n11 vin1.n10 0.578786
R48 vin1.n10 vin1.n9 0.578786
R49 vin1.n20 vin1.n8 0.254024
R50 vin1.n21 vin1.n7 0.254024
R51 vin1.n22 vin1.n6 0.254024
R52 vin1.n23 vin1.n5 0.254024
R53 vin1.n24 vin1.n4 0.254024
R54 vin1.n25 vin1.n3 0.254024
R55 vin1.n26 vin1.n2 0.254024
R56 vin1.n27 vin1.n1 0.254024
R57 vin1.n9 vin1.n2 0.254024
R58 vin1.n10 vin1.n3 0.254024
R59 vin1.n11 vin1.n4 0.254024
R60 vin1.n12 vin1.n5 0.254024
R61 vin1.n13 vin1.n6 0.254024
R62 vin1.n14 vin1.n7 0.254024
R63 vin1.n15 vin1.n8 0.254024
R64 vin1.n19 vin1.n18 0.192615
R65 vin1.n18 vin1.n17 0.191641
R66 vin1.n18 vin1.n8 0.128842
R67 vin1.n8 vin1.n7 0.12194
R68 vin1.n7 vin1.n6 0.12194
R69 vin1.n6 vin1.n5 0.12194
R70 vin1.n5 vin1.n4 0.12194
R71 vin1.n4 vin1.n3 0.12194
R72 vin1.n3 vin1.n2 0.12194
R73 vin1.n2 vin1.n1 0.12194
R74 vin1.n28 vin1.n0 0.0847067
R75 vin1.n1 vin1.n0 0.0265126
R76 vin1 vin1.n28 0.00974
R77 vin1.n16 vin1.t1 0.00374593
R78 vin1.n16 vin1.t2 0.00125388
R79 vout2.n9 vout2.t10 10.2939
R80 vout2.n8 vout2.t15 10.2939
R81 vout2.n7 vout2.t12 10.2939
R82 vout2.n6 vout2.t11 10.2939
R83 vout2.n5 vout2.t19 10.2939
R84 vout2.n4 vout2.t14 10.2939
R85 vout2.n3 vout2.t13 10.2939
R86 vout2.n2 vout2.t18 10.2939
R87 vout2.n1 vout2.t17 10.2939
R88 vout2.n0 vout2.t16 10.2933
R89 vout2.n9 vout2.t3 2.08789
R90 vout2.n8 vout2.t2 2.08789
R91 vout2.n7 vout2.t1 2.08789
R92 vout2.n6 vout2.t0 2.08789
R93 vout2.n5 vout2.t7 2.08789
R94 vout2.n4 vout2.t6 2.0693
R95 vout2.n3 vout2.t8 2.0693
R96 vout2.n2 vout2.t5 2.0693
R97 vout2.n1 vout2.t4 2.0693
R98 vout2.n0 vout2.t9 2.0693
R99 vout2.n9 vout2.n8 0.16242
R100 vout2.n8 vout2.n7 0.16242
R101 vout2.n7 vout2.n6 0.16242
R102 vout2.n6 vout2.n5 0.16242
R103 vout2.n5 vout2.n4 0.16242
R104 vout2.n4 vout2.n3 0.16242
R105 vout2.n3 vout2.n2 0.16242
R106 vout2.n2 vout2.n1 0.16242
R107 vout2.n1 vout2.n0 0.16242
R108 vout2 vout2.n9 0.0151667
R109 vin2.n19 vin2.t0 0.994013
R110 vin2.n17 vin2.n16 0.965665
R111 vin2.n28 vin2.n27 0.83231
R112 vin2.n9 vin2.n0 0.754036
R113 vin2.n20 vin2.n19 0.578786
R114 vin2.n21 vin2.n20 0.578786
R115 vin2.n22 vin2.n21 0.578786
R116 vin2.n23 vin2.n22 0.578786
R117 vin2.n24 vin2.n23 0.578786
R118 vin2.n25 vin2.n24 0.578786
R119 vin2.n26 vin2.n25 0.578786
R120 vin2.n27 vin2.n26 0.578786
R121 vin2.n17 vin2.n15 0.578786
R122 vin2.n15 vin2.n14 0.578786
R123 vin2.n14 vin2.n13 0.578786
R124 vin2.n13 vin2.n12 0.578786
R125 vin2.n12 vin2.n11 0.578786
R126 vin2.n11 vin2.n10 0.578786
R127 vin2.n10 vin2.n9 0.578786
R128 vin2.n20 vin2.n8 0.254024
R129 vin2.n21 vin2.n7 0.254024
R130 vin2.n22 vin2.n6 0.254024
R131 vin2.n23 vin2.n5 0.254024
R132 vin2.n24 vin2.n4 0.254024
R133 vin2.n25 vin2.n3 0.254024
R134 vin2.n26 vin2.n2 0.254024
R135 vin2.n27 vin2.n1 0.254024
R136 vin2.n9 vin2.n2 0.254024
R137 vin2.n10 vin2.n3 0.254024
R138 vin2.n11 vin2.n4 0.254024
R139 vin2.n12 vin2.n5 0.254024
R140 vin2.n13 vin2.n6 0.254024
R141 vin2.n14 vin2.n7 0.254024
R142 vin2.n15 vin2.n8 0.254024
R143 vin2.n19 vin2.n18 0.192615
R144 vin2.n18 vin2.n17 0.191641
R145 vin2.n18 vin2.n8 0.128842
R146 vin2.n8 vin2.n7 0.12194
R147 vin2.n7 vin2.n6 0.12194
R148 vin2.n6 vin2.n5 0.12194
R149 vin2.n5 vin2.n4 0.12194
R150 vin2.n4 vin2.n3 0.12194
R151 vin2.n3 vin2.n2 0.12194
R152 vin2.n2 vin2.n1 0.12194
R153 vin2.n28 vin2.n0 0.0847067
R154 vin2.n1 vin2.n0 0.0265126
R155 vin2 vin2.n28 0.00974
R156 vin2.n16 vin2.t1 0.00374593
R157 vin2.n16 vin2.t2 0.00125388
R158 vout3.n9 vout3.t7 10.2939
R159 vout3.n8 vout3.t6 10.2939
R160 vout3.n7 vout3.t8 10.2939
R161 vout3.n6 vout3.t5 10.2939
R162 vout3.n5 vout3.t4 10.2939
R163 vout3.n4 vout3.t9 10.2939
R164 vout3.n3 vout3.t1 10.2939
R165 vout3.n2 vout3.t0 10.2939
R166 vout3.n1 vout3.t3 10.2939
R167 vout3.n0 vout3.t2 10.2939
R168 vout3.n9 vout3.t10 2.0884
R169 vout3.n8 vout3.t13 2.0884
R170 vout3.n7 vout3.t12 2.0884
R171 vout3.n6 vout3.t17 2.0884
R172 vout3.n5 vout3.t16 2.0884
R173 vout3.n4 vout3.t19 2.0693
R174 vout3.n3 vout3.t18 2.0693
R175 vout3.n2 vout3.t15 2.0693
R176 vout3.n1 vout3.t14 2.0693
R177 vout3.n0 vout3.t11 2.06738
R178 vout3.n9 vout3.n8 0.16242
R179 vout3.n8 vout3.n7 0.16242
R180 vout3.n7 vout3.n6 0.16242
R181 vout3.n6 vout3.n5 0.16242
R182 vout3.n5 vout3.n4 0.16242
R183 vout3.n4 vout3.n3 0.16242
R184 vout3.n3 vout3.n2 0.16242
R185 vout3.n2 vout3.n1 0.16242
R186 vout3.n1 vout3.n0 0.16242
R187 vout3 vout3.n9 0.0151667
R188 vin3.n19 vin3.t0 0.994013
R189 vin3.n17 vin3.n16 0.965665
R190 vin3.n28 vin3.n27 0.83231
R191 vin3.n9 vin3.n0 0.754036
R192 vin3.n20 vin3.n19 0.578786
R193 vin3.n21 vin3.n20 0.578786
R194 vin3.n22 vin3.n21 0.578786
R195 vin3.n23 vin3.n22 0.578786
R196 vin3.n24 vin3.n23 0.578786
R197 vin3.n25 vin3.n24 0.578786
R198 vin3.n26 vin3.n25 0.578786
R199 vin3.n27 vin3.n26 0.578786
R200 vin3.n17 vin3.n15 0.578786
R201 vin3.n15 vin3.n14 0.578786
R202 vin3.n14 vin3.n13 0.578786
R203 vin3.n13 vin3.n12 0.578786
R204 vin3.n12 vin3.n11 0.578786
R205 vin3.n11 vin3.n10 0.578786
R206 vin3.n10 vin3.n9 0.578786
R207 vin3.n20 vin3.n8 0.254024
R208 vin3.n21 vin3.n7 0.254024
R209 vin3.n22 vin3.n6 0.254024
R210 vin3.n23 vin3.n5 0.254024
R211 vin3.n24 vin3.n4 0.254024
R212 vin3.n25 vin3.n3 0.254024
R213 vin3.n26 vin3.n2 0.254024
R214 vin3.n27 vin3.n1 0.254024
R215 vin3.n9 vin3.n2 0.254024
R216 vin3.n10 vin3.n3 0.254024
R217 vin3.n11 vin3.n4 0.254024
R218 vin3.n12 vin3.n5 0.254024
R219 vin3.n13 vin3.n6 0.254024
R220 vin3.n14 vin3.n7 0.254024
R221 vin3.n15 vin3.n8 0.254024
R222 vin3.n19 vin3.n18 0.192615
R223 vin3.n18 vin3.n17 0.191641
R224 vin3.n18 vin3.n8 0.128842
R225 vin3.n8 vin3.n7 0.12194
R226 vin3.n7 vin3.n6 0.12194
R227 vin3.n6 vin3.n5 0.12194
R228 vin3.n5 vin3.n4 0.12194
R229 vin3.n4 vin3.n3 0.12194
R230 vin3.n3 vin3.n2 0.12194
R231 vin3.n2 vin3.n1 0.12194
R232 vin3.n28 vin3.n0 0.0847067
R233 vin3.n1 vin3.n0 0.0265126
R234 vin3 vin3.n28 0.00974
R235 vin3.n16 vin3.t1 0.00374593
R236 vin3.n16 vin3.t2 0.00125388
R237 vout4.n9 vout4.t16 10.2939
R238 vout4.n8 vout4.t15 10.2939
R239 vout4.n7 vout4.t14 10.2939
R240 vout4.n6 vout4.t13 10.2939
R241 vout4.n5 vout4.t19 10.2939
R242 vout4.n4 vout4.t17 10.2939
R243 vout4.n3 vout4.t11 10.2939
R244 vout4.n2 vout4.t10 10.2939
R245 vout4.n1 vout4.t18 10.2939
R246 vout4.n0 vout4.t12 10.2933
R247 vout4.n9 vout4.t8 2.08789
R248 vout4.n8 vout4.t9 2.08789
R249 vout4.n7 vout4.t5 2.08789
R250 vout4.n6 vout4.t1 2.08789
R251 vout4.n5 vout4.t0 2.08789
R252 vout4.n4 vout4.t3 2.0693
R253 vout4.n3 vout4.t2 2.0693
R254 vout4.n2 vout4.t4 2.0693
R255 vout4.n1 vout4.t6 2.0693
R256 vout4.n0 vout4.t7 2.0693
R257 vout4.n9 vout4.n8 0.16242
R258 vout4.n8 vout4.n7 0.16242
R259 vout4.n7 vout4.n6 0.16242
R260 vout4.n6 vout4.n5 0.16242
R261 vout4.n5 vout4.n4 0.16242
R262 vout4.n4 vout4.n3 0.16242
R263 vout4.n3 vout4.n2 0.16242
R264 vout4.n2 vout4.n1 0.16242
R265 vout4.n1 vout4.n0 0.16242
R266 vout4 vout4.n9 0.0151667
R267 vin4.n19 vin4.t0 0.994013
R268 vin4.n17 vin4.n16 0.965665
R269 vin4.n28 vin4.n27 0.83231
R270 vin4.n9 vin4.n0 0.754036
R271 vin4.n20 vin4.n19 0.578786
R272 vin4.n21 vin4.n20 0.578786
R273 vin4.n22 vin4.n21 0.578786
R274 vin4.n23 vin4.n22 0.578786
R275 vin4.n24 vin4.n23 0.578786
R276 vin4.n25 vin4.n24 0.578786
R277 vin4.n26 vin4.n25 0.578786
R278 vin4.n27 vin4.n26 0.578786
R279 vin4.n17 vin4.n15 0.578786
R280 vin4.n15 vin4.n14 0.578786
R281 vin4.n14 vin4.n13 0.578786
R282 vin4.n13 vin4.n12 0.578786
R283 vin4.n12 vin4.n11 0.578786
R284 vin4.n11 vin4.n10 0.578786
R285 vin4.n10 vin4.n9 0.578786
R286 vin4.n20 vin4.n8 0.254024
R287 vin4.n21 vin4.n7 0.254024
R288 vin4.n22 vin4.n6 0.254024
R289 vin4.n23 vin4.n5 0.254024
R290 vin4.n24 vin4.n4 0.254024
R291 vin4.n25 vin4.n3 0.254024
R292 vin4.n26 vin4.n2 0.254024
R293 vin4.n27 vin4.n1 0.254024
R294 vin4.n9 vin4.n2 0.254024
R295 vin4.n10 vin4.n3 0.254024
R296 vin4.n11 vin4.n4 0.254024
R297 vin4.n12 vin4.n5 0.254024
R298 vin4.n13 vin4.n6 0.254024
R299 vin4.n14 vin4.n7 0.254024
R300 vin4.n15 vin4.n8 0.254024
R301 vin4.n19 vin4.n18 0.192615
R302 vin4.n18 vin4.n17 0.191641
R303 vin4.n18 vin4.n8 0.128842
R304 vin4.n8 vin4.n7 0.12194
R305 vin4.n7 vin4.n6 0.12194
R306 vin4.n6 vin4.n5 0.12194
R307 vin4.n5 vin4.n4 0.12194
R308 vin4.n4 vin4.n3 0.12194
R309 vin4.n3 vin4.n2 0.12194
R310 vin4.n2 vin4.n1 0.12194
R311 vin4.n28 vin4.n0 0.0847067
R312 vin4.n1 vin4.n0 0.0265126
R313 vin4 vin4.n28 0.00974
R314 vin4.n16 vin4.t1 0.00374593
R315 vin4.n16 vin4.t2 0.00125388
R316 VDD.n516 VDD.t89 17.0005
R317 VDD.t89 VDD.n483 17.0005
R318 VDD.t62 VDD.n515 17.0005
R319 VDD.t62 VDD.n514 17.0005
R320 VDD.t62 VDD.n513 17.0005
R321 VDD.t62 VDD.n512 17.0005
R322 VDD.t62 VDD.n511 17.0005
R323 VDD.t62 VDD.n510 17.0005
R324 VDD.t62 VDD.n509 17.0005
R325 VDD.t62 VDD.n481 17.0005
R326 VDD.t62 VDD.n508 17.0005
R327 VDD.t62 VDD.n506 17.0005
R328 VDD.t62 VDD.n505 17.0005
R329 VDD.t62 VDD.n504 17.0005
R330 VDD.t62 VDD.n503 17.0005
R331 VDD.t62 VDD.n502 17.0005
R332 VDD.n515 VDD.t89 17.0005
R333 VDD.n514 VDD.t89 17.0005
R334 VDD.n513 VDD.t89 17.0005
R335 VDD.n512 VDD.t89 17.0005
R336 VDD.n511 VDD.t89 17.0005
R337 VDD.n510 VDD.t89 17.0005
R338 VDD.n509 VDD.t89 17.0005
R339 VDD.n506 VDD.t89 17.0005
R340 VDD.n505 VDD.t89 17.0005
R341 VDD.n504 VDD.t89 17.0005
R342 VDD.n503 VDD.t89 17.0005
R343 VDD.n502 VDD.t89 17.0005
R344 VDD.n501 VDD.t89 17.0005
R345 VDD.t62 VDD.n501 17.0005
R346 VDD.t62 VDD.n483 17.0005
R347 VDD.n516 VDD.t62 17.0005
R348 VDD.n1041 VDD.n499 17.0005
R349 VDD.n1041 VDD.n498 17.0005
R350 VDD.n1041 VDD.n497 17.0005
R351 VDD.n1041 VDD.n496 17.0005
R352 VDD.n1041 VDD.n495 17.0005
R353 VDD.n1041 VDD.n494 17.0005
R354 VDD.n1041 VDD.n493 17.0005
R355 VDD.n1041 VDD.n492 17.0005
R356 VDD.n1041 VDD.n491 17.0005
R357 VDD.n1041 VDD.n490 17.0005
R358 VDD.n1041 VDD.n489 17.0005
R359 VDD.n1041 VDD.n488 17.0005
R360 VDD.n1041 VDD.n487 17.0005
R361 VDD.n1042 VDD.n1041 17.0005
R362 VDD.n1041 VDD.n482 17.0005
R363 VDD.n1025 VDD.n1024 17.0005
R364 VDD.n1024 VDD.n1023 17.0005
R365 VDD.n1021 VDD.n1020 17.0005
R366 VDD.n1020 VDD.n1019 17.0005
R367 VDD.n1017 VDD.n1016 17.0005
R368 VDD.n1016 VDD.n1015 17.0005
R369 VDD.n691 VDD.n684 17.0005
R370 VDD.n692 VDD.n691 17.0005
R371 VDD.n695 VDD.n694 17.0005
R372 VDD.n696 VDD.n695 17.0005
R373 VDD.n699 VDD.n698 17.0005
R374 VDD.n700 VDD.n699 17.0005
R375 VDD.n703 VDD.n702 17.0005
R376 VDD.n704 VDD.n703 17.0005
R377 VDD.n706 VDD.n705 17.0005
R378 VDD.n707 VDD.n706 17.0005
R379 VDD.n1010 VDD.n1009 17.0005
R380 VDD.n1007 VDD.n1006 17.0005
R381 VDD.n1004 VDD.n1003 17.0005
R382 VDD.n1003 VDD.n1002 17.0005
R383 VDD.n1001 VDD.n1000 17.0005
R384 VDD.n1000 VDD.n999 17.0005
R385 VDD.n965 VDD.n962 17.0005
R386 VDD.n966 VDD.n965 17.0005
R387 VDD.n970 VDD.n969 17.0005
R388 VDD.n971 VDD.n970 17.0005
R389 VDD.n975 VDD.n974 17.0005
R390 VDD.n976 VDD.n975 17.0005
R391 VDD.n981 VDD.n980 17.0005
R392 VDD.n982 VDD.n981 17.0005
R393 VDD.n986 VDD.n985 17.0005
R394 VDD.n987 VDD.n986 17.0005
R395 VDD.n995 VDD.n989 17.0005
R396 VDD.n996 VDD.n995 17.0005
R397 VDD.n809 VDD.n808 17.0005
R398 VDD.n810 VDD.n809 17.0005
R399 VDD.n813 VDD.n812 17.0005
R400 VDD.n814 VDD.n813 17.0005
R401 VDD.n816 VDD.n815 17.0005
R402 VDD.n817 VDD.n816 17.0005
R403 VDD.n819 VDD.n818 17.0005
R404 VDD.n820 VDD.n819 17.0005
R405 VDD.n822 VDD.n821 17.0005
R406 VDD.n823 VDD.n822 17.0005
R407 VDD.n825 VDD.n824 17.0005
R408 VDD.n826 VDD.n825 17.0005
R409 VDD.n828 VDD.n827 17.0005
R410 VDD.n829 VDD.n828 17.0005
R411 VDD.n832 VDD.n831 17.0005
R412 VDD.n833 VDD.n832 17.0005
R413 VDD.n835 VDD.n834 17.0005
R414 VDD.n836 VDD.n835 17.0005
R415 VDD.n838 VDD.n837 17.0005
R416 VDD.n839 VDD.n838 17.0005
R417 VDD.n841 VDD.n840 17.0005