* PEX produced on Sun Mar 29 07:07:55 PM CEST 2026 using /foss/tools/sak/sak-pex.sh with m=3 and s=1
* NGSPICE file created from iqmod_top_pex.ext - technology: ihp-sg13g2

.subckt iqmod_top_pex di_ds_I_p di_spdt_ctrl_I di_ds_I_n di_ds_Q_n
+ di_spdt_ctrl_Q di_ds_Q_p vinp_Q vinn_Q di_lo_I di_lo_Ix voutp_I_RF vinp_I
+ vinn_I di_lo_Q di_lo_Qx voutn_I_RF voutp_Q_RF voutn_Q_RF VDD VSS di_analog_en
X0 iqmod_top_pex_half_0.iqmod_spdt_switch_0.spdt_switch_inv_0.vin.t0 di_spdt_ctrl_Q.t2 VSS.t457 VSS.t1302 sg13_lv_nmos ad=0.19p pd=1.38u as=0.19p ps=1.38u w=1u l=0.13u
X1 VDD.t938 iqmod_top_pex_half_1.iqmod_mixer_0.iqmod_mixer_half$1_0.iqmod_mixer_se2diff$2_0.iqmod_mixer_se2diff_half_tg$3_0.iqmod_mixer_se2diff_inv_NF54$8_0.vin.t0 iqmod_top_pex_half_1.iqmod_mixer_0.iqmod_mixer_half$1_0.iqmod_mixer_tg$2_0.di_tg_ctrl_n.t49 VDD.t3 sg13_lv_pmos ad=0.57p pd=3.38u as=0.57p ps=3.38u w=3u l=0.13u
X2 VDD.t262 iqmod_top_pex_half_1.iqmod_mixer_0.iqmod_mixer_half$1_0.iqmod_mixer_se2diff$2_0.iqmod_mixer_se2diff_half_inv$3_0.iqmod_mixer_se2diff_inv_NF6$9_0.vin.t12 iqmod_top_pex_half_1.iqmod_mixer_0.iqmod_mixer_half$1_0.iqmod_mixer_se2diff$2_0.iqmod_mixer_se2diff_half_inv$3_0.iqmod_mixer_se2diff_inv_NF6$9_0.vout.t1 VDD.t122 sg13_lv_pmos ad=0.57p pd=3.38u as=0.57p ps=3.38u w=3u l=0.13u
X3 iqmod_top_pex_half_1.iqmod_mixer_0.iqmod_mixer_half$1_0.iqmod_mixer_se2diff$2_0.iqmod_mixer_se2diff_half_inv$3_0.iqmod_mixer_se2diff_inv_NF54$9_0.vin.t0 iqmod_top_pex_half_1.iqmod_mixer_0.iqmod_mixer_half$1_0.iqmod_mixer_se2diff$2_0.iqmod_mixer_se2diff_half_inv$3_0.iqmod_mixer_se2diff_inv_NF18$9_0.vin.t0 VDD.t962 VDD.t122 sg13_lv_pmos ad=0.57p pd=3.38u as=0.57p ps=3.38u w=3u l=0.13u
X4 VDD.t661 iqmod_top_pex_half_1.iqmod_mixer_0.iqmod_mixer_half$1_1.iqmod_mixer_se2diff$2_0.iqmod_mixer_se2diff_half_tg$3_0.iqmod_mixer_se2diff_inv_NF18$8_0.vin.t0 iqmod_top_pex_half_1.iqmod_mixer_0.iqmod_mixer_half$1_1.iqmod_mixer_se2diff$2_0.iqmod_mixer_se2diff_half_tg$3_0.iqmod_mixer_se2diff_inv_NF54$8_0.vin.t0 VDD.t3 sg13_lv_pmos ad=0.57p pd=3.38u as=0.57p ps=3.38u w=3u l=0.13u
X5 iqmod_top_pex_half_1.iqmod_mixer_0.vinp_IF.t4 iqmod_top_pex_half_1.iqmod_mfb_lpf_0.iqmod_mfb_lpf_half$1_0.iqmod_mfb_lpf_ota_core_hybrid_bm_half$2_0.iqmod_mfb_lpf_ota_core_tg$3_0.v_b.t37 VSS.t869 VSS.t874 sg13_lv_nmos ad=0.19p pd=1.38u as=0.19p ps=1.38u w=1u l=1u
X6 VSS.t424 VSS.t422 VSS.t424 VSS.t423 sg13_lv_nmos ad=0.19p pd=1.38u as=0 ps=0 w=1u l=0.13u
X7 VSS.t772 iqmod_top_pex_half_1.iqmod_mixer_0.iqmod_mixer_half$1_1.iqmod_mixer_se2diff$2_0.iqmod_mixer_se2diff_half_inv$3_0.iqmod_mixer_se2diff_inv_NF18$9_0.vin.t0 iqmod_top_pex_half_1.iqmod_mixer_0.iqmod_mixer_half$1_1.iqmod_mixer_se2diff$2_0.iqmod_mixer_se2diff_half_inv$3_0.iqmod_mixer_se2diff_inv_NF54$9_0.vin.t0 VSS.t771 sg13_lv_nmos ad=0.19p pd=1.38u as=0.19p ps=1.38u w=1u l=0.13u
X8 voutn_Q_RF.t1 iqmod_top_pex_half_0.iqmod_mixer_0.iqmod_mixer_half$1_0.iqmod_mixer_tg$2_0.di_tg_ctrl_n.t56 iqmod_top_pex_half_0.iqmod_mixer_0.vinn_IF.t2 VDD.t26 sg13_lv_pmos ad=1.71p pd=9.38u as=1.71p ps=9.38u w=9u l=0.13u
X9 iqmod_top_pex_half_1.iqmod_mixer_0.vinn_IF.t0 iqmod_top_pex_half_1.iqmod_mfb_lpf_0.iqmod_mfb_lpf_half$1_0.iqmod_mfb_lpf_ota_core_hybrid_bm_half$2_0.iqmod_mfb_lpf_ota_core_tg$3_0.v_b.t38 VSS.t216 VSS.t858 sg13_lv_nmos ad=0.19p pd=1.38u as=0.19p ps=1.38u w=1u l=1u
X10 iqmod_top_pex_half_0.iqmod_mfb_lpf_0.iqmod_mfb_lpf_half$1_1.iqmod_mfb_lpf_ota_core_hybrid_bm_half$2_0.iqmod_mfb_lpf_ota_core_inv_NF20$3_1.vin.t0 iqmod_top_pex_half_0.iqmod_mfb_lpf_0.iqmod_mfb_lpf_half$1_1.iqmod_mfb_lpf_ota_core_hybrid_bm_half$2_0.iqmod_mfb_lpf_ota_core_tg$3_0.di_tg_ctrl_n.t7 iqmod_top_pex_half_0.iqmod_mfb_lpf_0.iqmod_mfb_lpf_half$1_1.vinp.t2 VDD.t78 sg13_lv_pmos ad=1.14p pd=6.38u as=2.04p ps=12.68u w=6u l=0.13u
X11 VSS.t141 di_lo_I.t1 iqmod_top_pex_half_1.iqmod_mixer_0.iqmod_mixer_half$1_1.iqmod_mixer_se2diff$2_0.iqmod_mixer_se2diff_half_inv$3_0.iqmod_mixer_se2diff_inv_NF6$9_0.vin.t9 VSS.t2167 sg13_lv_nmos ad=0.19p pd=1.38u as=0.19p ps=1.38u w=1u l=0.13u
X12 iqmod_top_pex_half_1.iqmod_mixer_0.iqmod_mixer_half$1_0.iqmod_mixer_se2diff$2_0.iqmod_mixer_se2diff_half_inv$3_0.iqmod_mixer_se2diff_inv_NF2$9_1.vout.t6 iqmod_top_pex_half_1.iqmod_mixer_0.iqmod_mixer_half$1_0.iqmod_mixer_se2diff$2_0.iqmod_mixer_se2diff_half_inv$3_0.iqmod_mixer_se2diff_inv_NF6$9_1.vin.t11 VSS.t357 VSS.t925 sg13_lv_nmos ad=0.19p pd=1.38u as=0.19p ps=1.38u w=1u l=0.13u
X13 VSS.t363 VSS.t361 VSS.t362 VSS.t319 sg13_lv_nmos ad=0.34p pd=2.68u as=0 ps=0 w=1u l=0.13u
X14 iqmod_top_pex_half_1.iqmod_mixer_0.iqmod_mixer_half$1_0.iqmod_mixer_tg$2_0.di_tg_ctrl.t3 iqmod_top_pex_half_1.iqmod_mixer_0.iqmod_mixer_half$1_0.iqmod_mixer_se2diff$2_0.iqmod_mixer_se2diff_half_inv$3_0.iqmod_mixer_se2diff_inv_NF54$9_0.vin.t0 VSS.t1569 VSS.t1570 sg13_lv_nmos ad=0.19p pd=1.38u as=0.19p ps=1.38u w=1u l=0.13u
X15 voutn_I_RF.t15 iqmod_top_pex_half_1.iqmod_mixer_0.iqmod_mixer_half$1_0.iqmod_mixer_tg$2_0.di_tg_ctrl_n.t54 iqmod_top_pex_half_1.iqmod_mixer_0.vinn_IF.t46 VDD.t122 sg13_lv_pmos ad=1.71p pd=9.38u as=1.71p ps=9.38u w=9u l=0.13u
X16 iqmod_top_pex_half_0.iqmod_mfb_lpf_0.iqmod_mfb_lpf_half$1_0.iqmod_mfb_lpf_ota_core_hybrid_bm_half$2_0.iqmod_mfb_lpf_ota_core_inv_NF20$3_0.vout.t10 iqmod_top_pex_half_0.iqmod_mixer_0.vinn_IF.t78 VDD.t103 VDD.t63 sg13_lv_pmos ad=1.14p pd=6.38u as=1.14p ps=6.38u w=6u l=1u
X17 VDD.t223 iqmod_top_pex_half_0.iqmod_mixer_0.vinp_IF.t79 iqmod_top_pex_half_0.iqmod_mfb_lpf_0.iqmod_mfb_lpf_half$1_0.iqmod_mfb_lpf_ota_core_hybrid_bm_half$2_0.iqmod_mfb_lpf_ota_core_inv_NF20$3_0.vout.t43 VDD.t78 sg13_lv_pmos ad=1.14p pd=6.38u as=1.14p ps=6.38u w=6u l=1u
X18 VDD.t185 iqmod_top_pex_half_1.iqmod_mixer_0.iqmod_mixer_half$1_1.iqmod_mixer_se2diff$2_0.iqmod_mixer_se2diff_half_inv$3_0.iqmod_mixer_se2diff_inv_NF54$9_0.vin.t0 iqmod_top_pex_half_1.iqmod_mixer_0.iqmod_mixer_half$1_1.iqmod_mixer_tg$2_0.di_tg_ctrl.t44 VDD.t32 sg13_lv_pmos ad=0.57p pd=3.38u as=0.57p ps=3.38u w=3u l=0.13u
X19 iqmod_top_pex_half_1.iqmod_mixer_0.iqmod_mixer_half$1_1.iqmod_mixer_tg$2_0.di_tg_ctrl.t16 iqmod_top_pex_half_1.iqmod_mixer_0.iqmod_mixer_half$1_1.iqmod_mixer_se2diff$2_0.iqmod_mixer_se2diff_half_inv$3_0.iqmod_mixer_se2diff_inv_NF54$9_0.vin.t0 VSS.t977 VSS.t976 sg13_lv_nmos ad=0.19p pd=1.38u as=0.19p ps=1.38u w=1u l=0.13u
X20 VDD.t5 VDD.t1294 VDD.t5 VDD.t3 sg13_lv_pmos ad=0.57p pd=3.38u as=0 ps=0 w=3u l=0.13u
X21 iqmod_top_pex_half_1.iqmod_spdt_switch_1.v_c.t3 iqmod_top_pex_half_1.iqmod_spdt_switch_1.spdt_switch_inv_0.vout.t4 di_ds_I_p.t0 VDD.t71 sg13_lv_pmos ad=1.14p pd=6.38u as=2.04p ps=12.68u w=6u l=0.13u
X22 VDD.t1068 iqmod_top_pex_half_0.iqmod_mixer_0.iqmod_mixer_half$1_1.iqmod_mixer_se2diff$2_0.iqmod_mixer_se2diff_half_inv$3_0.iqmod_mixer_se2diff_inv_NF54$9_0.vin.t0 iqmod_top_pex_half_0.iqmod_mixer_0.iqmod_mixer_half$1_1.iqmod_mixer_tg$2_0.di_tg_ctrl.t50 VDD.t27 sg13_lv_pmos ad=0.57p pd=3.38u as=0.57p ps=3.38u w=3u l=0.13u
X23 voutn_I_RF.t13 iqmod_top_pex_half_1.iqmod_mixer_0.iqmod_mixer_half$1_0.iqmod_mixer_tg$2_0.di_tg_ctrl.t54 voutn_I_RF.t13 VDD.t122 sg13_lv_pmos ad=1.71p pd=9.38u as=0 ps=0 w=9u l=0.13u
X24 voutn_Q_RF.t37 iqmod_top_pex_half_0.iqmod_mixer_0.iqmod_mixer_half$1_0.iqmod_mixer_tg$2_0.di_tg_ctrl.t56 voutn_Q_RF.t37 VDD.t26 sg13_lv_pmos ad=1.71p pd=9.38u as=0 ps=0 w=9u l=0.13u
X25 iqmod_top_pex_half_1.iqmod_mixer_0.iqmod_mixer_half$1_0.iqmod_mixer_tg$2_0.di_tg_ctrl_n.t48 iqmod_top_pex_half_1.iqmod_mixer_0.iqmod_mixer_half$1_0.iqmod_mixer_se2diff$2_0.iqmod_mixer_se2diff_half_tg$3_0.iqmod_mixer_se2diff_inv_NF54$8_0.vin.t0 VDD.t935 VDD.t3 sg13_lv_pmos ad=0.57p pd=3.38u as=0.57p ps=3.38u w=3u l=0.13u
X26 iqmod_top_pex_half_0.iqmod_mixer_0.iqmod_mixer_half$1_0.iqmod_mixer_tg$2_0.di_tg_ctrl_n.t36 iqmod_top_pex_half_0.iqmod_mixer_0.iqmod_mixer_half$1_0.iqmod_mixer_se2diff$2_0.iqmod_mixer_se2diff_half_tg$3_0.iqmod_mixer_se2diff_inv_NF54$8_0.vin.t0 VDD.t483 VDD.t6 sg13_lv_pmos ad=0.57p pd=3.38u as=0.57p ps=3.38u w=3u l=0.13u
X27 VDD.t960 iqmod_top_pex_half_1.iqmod_mixer_0.iqmod_mixer_half$1_0.iqmod_mixer_se2diff$2_0.iqmod_mixer_se2diff_half_inv$3_0.iqmod_mixer_se2diff_inv_NF18$9_0.vin.t0 iqmod_top_pex_half_1.iqmod_mixer_0.iqmod_mixer_half$1_0.iqmod_mixer_se2diff$2_0.iqmod_mixer_se2diff_half_inv$3_0.iqmod_mixer_se2diff_inv_NF54$9_0.vin.t0 VDD.t122 sg13_lv_pmos ad=0.57p pd=3.38u as=0.57p ps=3.38u w=3u l=0.13u
X28 VSS.t531 VSS.t529 VSS.t531 VSS.t530 sg13_lv_nmos ad=0.19p pd=1.38u as=0 ps=0 w=1u l=1u
X29 iqmod_top_pex_half_0.iqmod_mfb_lpf_0.iqmod_mfb_lpf_half$1_0.C1_half.t6 a_18613_n2346.t1 VSS.t1042 rhigh l=31u w=0.5u
X30 iqmod_top_pex_half_0.iqmod_mixer_0.vinn_IF.t51 iqmod_top_pex_half_0.iqmod_mfb_lpf_0.iqmod_mfb_lpf_half$1_0.iqmod_mfb_lpf_ota_core_hybrid_bm_half$2_0.iqmod_mfb_lpf_ota_core_inv_NF20$3_1.vin.t0 VDD.t727 VDD.t63 sg13_lv_pmos ad=1.14p pd=6.38u as=1.14p ps=6.38u w=6u l=1u
X31 VSS.t2083 iqmod_top_pex_half_0.iqmod_mixer_0.iqmod_mixer_half$1_0.iqmod_mixer_se2diff$2_0.iqmod_mixer_se2diff_half_inv$3_0.iqmod_mixer_se2diff_inv_NF54$9_0.vin.t0 iqmod_top_pex_half_0.iqmod_mixer_0.iqmod_mixer_half$1_0.iqmod_mixer_tg$2_0.di_tg_ctrl.t7 VSS.t1384 sg13_lv_nmos ad=0.19p pd=1.38u as=0.19p ps=1.38u w=1u l=0.13u
X32 iqmod_top_pex_half_0.iqmod_mixer_0.iqmod_mixer_half$1_0.iqmod_mixer_se2diff$2_0.iqmod_mixer_se2diff_half_inv$3_0.iqmod_mixer_se2diff_inv_NF54$9_0.vin.t1 iqmod_top_pex_half_0.iqmod_mixer_0.iqmod_mixer_half$1_0.iqmod_mixer_se2diff$2_0.iqmod_mixer_se2diff_half_inv$3_0.iqmod_mixer_se2diff_inv_NF18$9_0.vin.t0 VSS.t1065 VSS.t1064 sg13_lv_nmos ad=0.19p pd=1.38u as=0.19p ps=1.38u w=1u l=0.13u
X33 VSS.t1566 iqmod_top_pex_half_1.iqmod_mixer_0.iqmod_mixer_half$1_0.iqmod_mixer_se2diff$2_0.iqmod_mixer_se2diff_half_inv$3_0.iqmod_mixer_se2diff_inv_NF54$9_0.vin.t0 iqmod_top_pex_half_1.iqmod_mixer_0.iqmod_mixer_half$1_0.iqmod_mixer_tg$2_0.di_tg_ctrl.t1 VSS.t1565 sg13_lv_nmos ad=0.19p pd=1.38u as=0.19p ps=1.38u w=1u l=0.13u
X34 iqmod_top_pex_half_1.iqmod_mixer_0.iqmod_mixer_half$1_0.iqmod_mixer_tg$2_0.di_tg_ctrl.t43 iqmod_top_pex_half_1.iqmod_mixer_0.iqmod_mixer_half$1_0.iqmod_mixer_se2diff$2_0.iqmod_mixer_se2diff_half_inv$3_0.iqmod_mixer_se2diff_inv_NF54$9_0.vin.t0 VDD.t623 VDD.t122 sg13_lv_pmos ad=0.57p pd=3.38u as=0.57p ps=3.38u w=3u l=0.13u
X35 voutp_I_RF.t8 iqmod_top_pex_half_1.iqmod_mixer_0.iqmod_mixer_half$1_1.iqmod_mixer_tg$2_0.di_tg_ctrl_n.t54 voutp_I_RF.t8 VSS.t42 sg13_lv_nmos ad=0.57p pd=3.38u as=0 ps=0 w=3u l=0.13u
X36 iqmod_top_pex_half_1.iqmod_mixer_0.vinn_IF.t45 iqmod_top_pex_half_1.iqmod_mixer_0.iqmod_mixer_half$1_0.iqmod_mixer_tg$2_0.di_tg_ctrl_n.t54 voutn_I_RF.t9 VDD.t122 sg13_lv_pmos ad=1.71p pd=9.38u as=1.71p ps=9.38u w=9u l=0.13u
X37 VDD.t518 iqmod_top_pex_half_0.iqmod_mixer_0.iqmod_mixer_half$1_0.iqmod_mixer_se2diff$2_0.iqmod_mixer_se2diff_half_tg$3_0.iqmod_mixer_se2diff_inv_NF54$8_0.vin.t0 iqmod_top_pex_half_0.iqmod_mixer_0.iqmod_mixer_half$1_0.iqmod_mixer_tg$2_0.di_tg_ctrl_n.t53 VDD.t6 sg13_lv_pmos ad=0.57p pd=3.38u as=0.57p ps=3.38u w=3u l=0.13u
X38 VDD.t506 iqmod_top_pex_half_0.iqmod_mixer_0.iqmod_mixer_half$1_0.iqmod_mixer_se2diff$2_0.iqmod_mixer_se2diff_half_tg$3_0.iqmod_mixer_se2diff_inv_NF54$8_0.vin.t0 iqmod_top_pex_half_0.iqmod_mixer_0.iqmod_mixer_half$1_0.iqmod_mixer_tg$2_0.di_tg_ctrl_n.t47 VDD.t6 sg13_lv_pmos ad=0.57p pd=3.38u as=0.57p ps=3.38u w=3u l=0.13u
X39 iqmod_top_pex_half_1.iqmod_mfb_lpf_0.iqmod_mfb_lpf_half$1_0.iqmod_mfb_lpf_ota_core_hybrid_bm_half$2_0.iqmod_mfb_lpf_ota_core_tg$3_0.v_b.t2 iqmod_top_pex_half_1.iqmod_mfb_lpf_0.iqmod_mfb_lpf_half$1_0.iqmod_mfb_lpf_ota_core_hybrid_bm_half$2_0.iqmod_mfb_lpf_ota_core_tg$3_0.v_a.t0 VSS.t1294 VSS.t1295 sg13_lv_nmos ad=0.19p pd=1.38u as=0.19p ps=1.38u w=1u l=1u
X40 iqmod_top_pex_half_1.iqmod_mfb_lpf_0.iqmod_mfb_lpf_half$1_0.iqmod_mfb_lpf_ota_core_hybrid_bm_half$2_0.iqmod_mfb_lpf_ota_core_inv_NF6$3_1.vout.t21 di_analog_en.t9 iqmod_top_pex_half_1.iqmod_mfb_lpf_0.iqmod_mfb_lpf_half$1_0.iqmod_mfb_lpf_ota_core_hybrid_bm_half$2_0.iqmod_mfb_lpf_ota_core_inv_NF20$3_0.vout.t34 VSS.t1795 sg13_lv_nmos ad=0.19p pd=1.38u as=0.34p ps=2.68u w=1u l=0.13u
X41 VDD.t1293 VDD.t1291 VDD.t4 VDD.t3 sg13_lv_pmos ad=1.02p pd=6.68u as=0 ps=0 w=3u l=0.13u
X42 VDD.t898 iqmod_top_pex_half_1.iqmod_mixer_0.iqmod_mixer_half$1_0.iqmod_mixer_se2diff$2_0.iqmod_mixer_se2diff_half_tg$3_0.iqmod_mixer_se2diff_inv_NF54$8_0.vin.t0 iqmod_top_pex_half_1.iqmod_mixer_0.iqmod_mixer_half$1_0.iqmod_mixer_tg$2_0.di_tg_ctrl_n.t29 VDD.t3 sg13_lv_pmos ad=0.57p pd=3.38u as=0.57p ps=3.38u w=3u l=0.13u
X43 VSS.t1677 iqmod_top_pex_half_0.iqmod_mfb_lpf_0.iqmod_mfb_lpf_half$1_0.iqmod_mfb_lpf_ota_core_hybrid_bm_half$2_0.iqmod_mfb_lpf_ota_core_inv_NF20$3_1.vin.t0 iqmod_top_pex_half_0.iqmod_mfb_lpf_0.iqmod_mfb_lpf_half$1_0.iqmod_mfb_lpf_ota_core_hybrid_bm_half$2_0.iqmod_mfb_lpf_ota_core_tg$3_0.v_a.t1 VSS.t1092 sg13_lv_nmos ad=0.19p pd=1.38u as=0.19p ps=1.38u w=1u l=1u
X44 voutn_I_RF.t30 iqmod_top_pex_half_1.iqmod_mixer_0.iqmod_mixer_half$1_0.iqmod_mixer_tg$2_0.di_tg_ctrl.t56 iqmod_top_pex_half_1.iqmod_mixer_0.vinn_IF.t33 VSS.t1222 sg13_lv_nmos ad=0.57p pd=3.38u as=0.57p ps=3.38u w=3u l=0.13u
X45 VSS.t1738 iqmod_top_pex_half_0.iqmod_mixer_0.vinn_IF.t79 iqmod_top_pex_half_0.iqmod_mfb_lpf_0.iqmod_mfb_lpf_half$1_0.iqmod_mfb_lpf_ota_core_hybrid_bm_half$2_0.iqmod_mfb_lpf_ota_core_inv_NF20$3_0.vout.t1 VSS.t1009 sg13_lv_nmos ad=0.19p pd=1.38u as=0.19p ps=1.38u w=1u l=1u
X46 VDD.t50 iqmod_top_pex_half_1.iqmod_mixer_0.iqmod_mixer_half$1_1.iqmod_mixer_se2diff$2_0.iqmod_mixer_se2diff_half_inv$3_0.iqmod_mixer_se2diff_inv_NF18$9_0.vin.t0 iqmod_top_pex_half_1.iqmod_mixer_0.iqmod_mixer_half$1_1.iqmod_mixer_se2diff$2_0.iqmod_mixer_se2diff_half_inv$3_0.iqmod_mixer_se2diff_inv_NF54$9_0.vin.t0 VDD.t32 sg13_lv_pmos ad=0.57p pd=3.38u as=0.57p ps=3.38u w=3u l=0.13u
X47 voutn_Q_RF.t10 iqmod_top_pex_half_0.iqmod_mixer_0.iqmod_mixer_half$1_0.iqmod_mixer_tg$2_0.di_tg_ctrl_n.t56 iqmod_top_pex_half_0.iqmod_mixer_0.vinn_IF.t0 VDD.t26 sg13_lv_pmos ad=1.71p pd=9.38u as=1.71p ps=9.38u w=9u l=0.13u
X48 VDD.t863 iqmod_top_pex_half_1.iqmod_mixer_0.vinn_IF.t79 iqmod_top_pex_half_1.iqmod_mfb_lpf_0.iqmod_mfb_lpf_half$1_0.iqmod_mfb_lpf_ota_core_hybrid_bm_half$2_0.iqmod_mfb_lpf_ota_core_inv_NF20$3_0.vout.t39 VDD.t70 sg13_lv_pmos ad=1.14p pd=6.38u as=1.14p ps=6.38u w=6u l=1u
X49 VDD.t172 iqmod_top_pex_half_1.iqmod_mixer_0.iqmod_mixer_half$1_1.iqmod_mixer_se2diff$2_0.iqmod_mixer_se2diff_half_inv$3_0.iqmod_mixer_se2diff_inv_NF54$9_0.vin.t0 iqmod_top_pex_half_1.iqmod_mixer_0.iqmod_mixer_half$1_1.iqmod_mixer_tg$2_0.di_tg_ctrl.t36 VDD.t32 sg13_lv_pmos ad=0.57p pd=3.38u as=0.57p ps=3.38u w=3u l=0.13u
X50 voutp_I_RF.t21 iqmod_top_pex_half_1.iqmod_mixer_0.iqmod_mixer_half$1_1.iqmod_mixer_tg$2_0.di_tg_ctrl_n.t56 iqmod_top_pex_half_1.iqmod_mixer_0.vinp_IF.t71 VDD.t32 sg13_lv_pmos ad=1.71p pd=9.38u as=1.71p ps=9.38u w=9u l=0.13u
X51 VSS.t766 iqmod_top_pex_half_1.iqmod_mixer_0.iqmod_mixer_half$1_1.iqmod_mixer_se2diff$2_0.iqmod_mixer_se2diff_half_inv$3_0.iqmod_mixer_se2diff_inv_NF18$9_0.vin.t0 iqmod_top_pex_half_1.iqmod_mixer_0.iqmod_mixer_half$1_1.iqmod_mixer_se2diff$2_0.iqmod_mixer_se2diff_half_inv$3_0.iqmod_mixer_se2diff_inv_NF54$9_0.vin.t0 VSS.t765 sg13_lv_nmos ad=0.19p pd=1.38u as=0.19p ps=1.38u w=1u l=0.13u
X52 VSS.t1484 VSS.t1485 VSS.t1042 rhigh l=31u w=0.5u
X53 voutp_I_RF.t8 iqmod_top_pex_half_1.iqmod_mixer_0.iqmod_mixer_half$1_1.iqmod_mixer_tg$2_0.di_tg_ctrl_n.t54 voutp_I_RF.t8 VSS.t39 sg13_lv_nmos ad=0.57p pd=3.38u as=0 ps=0 w=3u l=0.13u
X54 voutn_I_RF.t8 iqmod_top_pex_half_1.iqmod_mixer_0.iqmod_mixer_half$1_0.iqmod_mixer_tg$2_0.di_tg_ctrl_n.t54 iqmod_top_pex_half_1.iqmod_mixer_0.vinn_IF.t43 VDD.t122 sg13_lv_pmos ad=1.71p pd=9.38u as=1.71p ps=9.38u w=9u l=0.13u
X55 voutp_Q_RF.t21 iqmod_top_pex_half_0.iqmod_mixer_0.iqmod_mixer_half$1_1.iqmod_mixer_tg$2_0.di_tg_ctrl.t54 voutp_Q_RF.t21 VDD.t27 sg13_lv_pmos ad=1.71p pd=9.38u as=0 ps=0 w=9u l=0.13u
X56 iqmod_top_pex_half_0.iqmod_mixer_0.vinn_IF.t31 iqmod_top_pex_half_0.iqmod_mixer_0.iqmod_mixer_half$1_0.iqmod_mixer_tg$2_0.di_tg_ctrl.t54 voutn_Q_RF.t33 VSS.t86 sg13_lv_nmos ad=0.57p pd=3.38u as=0.57p ps=3.38u w=3u l=0.13u
X57 iqmod_top_pex_half_0.iqmod_mixer_0.iqmod_mixer_half$1_0.iqmod_mixer_tg$2_0.di_tg_ctrl_n.t28 iqmod_top_pex_half_0.iqmod_mixer_0.iqmod_mixer_half$1_0.iqmod_mixer_se2diff$2_0.iqmod_mixer_se2diff_half_tg$3_0.iqmod_mixer_se2diff_inv_NF54$8_0.vin.t0 VDD.t468 VDD.t6 sg13_lv_pmos ad=0.57p pd=3.38u as=0.57p ps=3.38u w=3u l=0.13u
X58 iqmod_top_pex_half_1.iqmod_mixer_0.vinn_IF.t32 iqmod_top_pex_half_1.iqmod_mixer_0.iqmod_mixer_half$1_0.iqmod_mixer_tg$2_0.di_tg_ctrl.t56 voutn_I_RF.t35 VSS.t1219 sg13_lv_nmos ad=0.57p pd=3.38u as=0.57p ps=3.38u w=3u l=0.13u
X59 iqmod_top_pex_half_0.iqmod_mfb_lpf_0.iqmod_mfb_lpf_half$1_0.iqmod_mfb_lpf_R1$2_0.v_b.t7 iqmod_top_pex_half_0.iqmod_mfb_lpf_0.iqmod_mfb_lpf_half$1_0.C1_half.t5 cap_cmim l=8u w=8u
X60 iqmod_top_pex_half_1.iqmod_mixer_0.iqmod_mixer_half$1_0.iqmod_mixer_se2diff$2_0.iqmod_mixer_se2diff_half_tg$3_0.iqmod_mixer_se2diff_tg_NF6$4_0.v_b.t5 VDD.t1648 iqmod_top_pex_half_1.iqmod_mixer_0.iqmod_mixer_half$1_0.iqmod_mixer_se2diff$2_0.iqmod_mixer_se2diff_half_inv$3_0.iqmod_mixer_se2diff_inv_NF6$9_0.vin.t9 VSS.t1319 sg13_lv_nmos ad=0.19p pd=1.38u as=0.19p ps=1.38u w=1u l=0.13u
X61 iqmod_top_pex_half_1.iqmod_mixer_0.iqmod_mixer_half$1_0.iqmod_mixer_se2diff$2_0.iqmod_mixer_se2diff_half_inv$3_0.iqmod_mixer_se2diff_inv_NF6$9_0.vout.t3 iqmod_top_pex_half_1.iqmod_mixer_0.iqmod_mixer_half$1_0.iqmod_mixer_se2diff$2_0.iqmod_mixer_se2diff_half_inv$3_0.iqmod_mixer_se2diff_inv_NF6$9_0.vin.t13 VSS.t346 VSS.t1316 sg13_lv_nmos ad=0.19p pd=1.38u as=0.19p ps=1.38u w=1u l=0.13u
X62 VDD.t554 iqmod_top_pex_half_0.iqmod_mixer_0.iqmod_mixer_half$1_0.iqmod_mixer_se2diff$2_0.iqmod_mixer_se2diff_half_tg$3_0.iqmod_mixer_se2diff_inv_NF18$8_0.vin.t0 iqmod_top_pex_half_0.iqmod_mixer_0.iqmod_mixer_half$1_0.iqmod_mixer_se2diff$2_0.iqmod_mixer_se2diff_half_tg$3_0.iqmod_mixer_se2diff_inv_NF54$8_0.vin.t0 VDD.t6 sg13_lv_pmos ad=0.57p pd=3.38u as=0.57p ps=3.38u w=3u l=0.13u
X63 iqmod_top_pex_half_1.iqmod_mfb_lpf_0.iqmod_mfb_lpf_half$1_0.iqmod_mfb_lpf_ota_core_hybrid_bm_half$2_0.iqmod_mfb_lpf_ota_core_tg$3_0.v_b.t34 iqmod_top_pex_half_1.iqmod_mfb_lpf_0.iqmod_mfb_lpf_half$1_0.iqmod_mfb_lpf_ota_core_hybrid_bm_half$2_0.iqmod_mfb_lpf_ota_core_inv_NF6$3_1.vout.t24 VDD.t1076 VDD.t81 sg13_lv_pmos ad=1.14p pd=6.38u as=1.14p ps=6.38u w=6u l=1u
X64 VSS.t421 VSS.t418 VSS.t420 VSS.t419 sg13_lv_nmos ad=0.34p pd=2.68u as=0 ps=0 w=1u l=0.13u
X65 VDD.t203 VDD.t1174 VDD.t203 VDD.t32 sg13_lv_pmos ad=0.57p pd=3.38u as=0 ps=0 w=3u l=0.13u
X66 iqmod_top_pex_half_0.iqmod_mfb_lpf_0.iqmod_mfb_lpf_half$1_0.iqmod_mfb_lpf_ota_core_hybrid_bm_half$2_0.iqmod_mfb_lpf_ota_core_tg$3_0.v_b.t28 iqmod_top_pex_half_0.iqmod_mfb_lpf_0.iqmod_mfb_lpf_half$1_0.iqmod_mfb_lpf_ota_core_hybrid_bm_half$2_0.iqmod_mfb_lpf_ota_core_tg$3_0.v_a.t0 VSS.t2123 VSS.t1548 sg13_lv_nmos ad=0.19p pd=1.38u as=0.19p ps=1.38u w=1u l=1u
X67 VSS.t429 VSS.t428 VSS.t429 VSS.t381 sg13_lv_nmos ad=0.19p pd=1.38u as=0 ps=0 w=1u l=0.13u
X68 iqmod_top_pex_half_0.iqmod_mixer_0.iqmod_mixer_half$1_0.iqmod_mixer_se2diff$2_0.iqmod_mixer_se2diff_half_inv$3_0.iqmod_mixer_se2diff_inv_NF54$9_0.vin.t0 iqmod_top_pex_half_0.iqmod_mixer_0.iqmod_mixer_half$1_0.iqmod_mixer_se2diff$2_0.iqmod_mixer_se2diff_half_inv$3_0.iqmod_mixer_se2diff_inv_NF18$9_0.vin.t0 VSS.t1060 VSS.t1061 sg13_lv_nmos ad=0.19p pd=1.38u as=0.19p ps=1.38u w=1u l=0.13u
X69 VDD.t385 iqmod_top_pex_half_1.iqmod_mixer_0.iqmod_mixer_half$1_1.iqmod_mixer_se2diff$2_0.iqmod_mixer_se2diff_half_tg$3_0.iqmod_mixer_se2diff_inv_NF54$8_0.vin.t0 iqmod_top_pex_half_1.iqmod_mixer_0.iqmod_mixer_half$1_1.iqmod_mixer_tg$2_0.di_tg_ctrl_n.t39 VDD.t3 sg13_lv_pmos ad=0.57p pd=3.38u as=0.57p ps=3.38u w=3u l=0.13u
X70 iqmod_top_pex_half_0.iqmod_mfb_lpf_0.iqmod_mfb_lpf_half$1_0.iqmod_mfb_lpf_ota_core_hybrid_bm_half$2_0.iqmod_mfb_lpf_ota_core_inv_NF20$3_0.vout.t41 iqmod_top_pex_half_0.iqmod_mixer_0.vinp_IF.t79 VDD.t217 VDD.t78 sg13_lv_pmos ad=1.14p pd=6.38u as=1.14p ps=6.38u w=6u l=1u
X71 voutp_I_RF.t16 iqmod_top_pex_half_1.iqmod_mixer_0.iqmod_mixer_half$1_1.iqmod_mixer_tg$2_0.di_tg_ctrl.t54 iqmod_top_pex_half_1.iqmod_mixer_0.vinp_IF.t14 VSS.t1204 sg13_lv_nmos ad=0.57p pd=3.38u as=0.57p ps=3.38u w=3u l=0.13u
X72 VDD.t956 iqmod_top_pex_half_1.iqmod_mixer_0.iqmod_mixer_half$1_0.iqmod_mixer_se2diff$2_0.iqmod_mixer_se2diff_half_inv$3_0.iqmod_mixer_se2diff_inv_NF18$9_0.vin.t0 iqmod_top_pex_half_1.iqmod_mixer_0.iqmod_mixer_half$1_0.iqmod_mixer_se2diff$2_0.iqmod_mixer_se2diff_half_inv$3_0.iqmod_mixer_se2diff_inv_NF54$9_0.vin.t0 VDD.t122 sg13_lv_pmos ad=0.57p pd=3.38u as=0.57p ps=3.38u w=3u l=0.13u
X73 iqmod_top_pex_half_0.iqmod_mixer_0.iqmod_mixer_half$1_1.iqmod_mixer_se2diff$2_0.iqmod_mixer_se2diff_half_inv$3_0.iqmod_mixer_se2diff_inv_NF6$9_0.vin.t1 VSS.t2188 iqmod_top_pex_half_0.iqmod_mixer_0.iqmod_mixer_half$1_1.iqmod_mixer_se2diff$2_0.iqmod_mixer_se2diff_half_tg$3_0.iqmod_mixer_se2diff_tg_NF6$4_0.v_b.t2 VDD.t6 sg13_lv_pmos ad=0.57p pd=3.38u as=0.57p ps=3.38u w=3u l=0.13u
X74 iqmod_top_pex_half_1.iqmod_mfb_lpf_0.iqmod_mfb_lpf_half$1_0.iqmod_mfb_lpf_ota_core_hybrid_bm_half$2_0.iqmod_mfb_lpf_ota_core_tg$3_0.v_a.t0 iqmod_top_pex_half_1.iqmod_mfb_lpf_0.iqmod_mfb_lpf_half$1_0.iqmod_mfb_lpf_ota_core_hybrid_bm_half$2_0.iqmod_mfb_lpf_ota_core_inv_NF20$3_1.vin.t0 VDD.t436 VDD.t70 sg13_lv_pmos ad=1.14p pd=6.38u as=1.14p ps=6.38u w=6u l=1u
X75 iqmod_top_pex_half_1.iqmod_mfb_lpf_0.iqmod_mfb_lpf_half$1_0.iqmod_mfb_lpf_ota_core_hybrid_bm_half$2_0.iqmod_mfb_lpf_ota_core_tg$3_0.v_a.t1 di_analog_en.t10 iqmod_top_pex_half_1.iqmod_mfb_lpf_0.iqmod_mfb_lpf_half$1_0.iqmod_mfb_lpf_ota_core_hybrid_bm_half$2_0.iqmod_mfb_lpf_ota_core_tg$3_0.v_b.t21 VSS.t1790 sg13_lv_nmos ad=0.19p pd=1.38u as=0.19p ps=1.38u w=1u l=0.13u
X76 VDD.t573 iqmod_top_pex_half_0.iqmod_mixer_0.iqmod_mixer_half$1_1.iqmod_mixer_se2diff$2_0.iqmod_mixer_se2diff_half_inv$3_0.iqmod_mixer_se2diff_inv_NF2$9_1.vout.t10 iqmod_top_pex_half_0.iqmod_mixer_0.iqmod_mixer_half$1_1.iqmod_mixer_se2diff$2_0.iqmod_mixer_se2diff_half_tg$3_0.iqmod_mixer_se2diff_inv_NF18$8_0.vin.t0 VDD.t6 sg13_lv_pmos ad=0.57p pd=3.38u as=0.57p ps=3.38u w=3u l=0.13u
X77 voutn_I_RF.t34 iqmod_top_pex_half_1.iqmod_mixer_0.iqmod_mixer_half$1_0.iqmod_mixer_tg$2_0.di_tg_ctrl.t56 iqmod_top_pex_half_1.iqmod_mixer_0.vinn_IF.t30 VSS.t1216 sg13_lv_nmos ad=0.57p pd=3.38u as=0.57p ps=3.38u w=3u l=0.13u
X78 VSS.t1031 iqmod_top_pex_half_0.iqmod_mixer_0.vinp_IF.t78 iqmod_top_pex_half_0.iqmod_mfb_lpf_0.iqmod_mfb_lpf_half$1_0.iqmod_mfb_lpf_ota_core_hybrid_bm_half$2_0.iqmod_mfb_lpf_ota_core_inv_NF20$3_0.vout.t31 VSS.t1033 sg13_lv_nmos ad=0.19p pd=1.38u as=0.19p ps=1.38u w=1u l=1u
X79 iqmod_top_pex_half_0.iqmod_mfb_lpf_0.iqmod_mfb_lpf_half$1_0.iqmod_mfb_lpf_ota_core_hybrid_bm_half$2_0.iqmod_mfb_lpf_ota_core_tg$3_0.v_a.t0 di_analog_en.t5 iqmod_top_pex_half_0.iqmod_mfb_lpf_0.iqmod_mfb_lpf_half$1_0.iqmod_mfb_lpf_ota_core_hybrid_bm_half$2_0.iqmod_mfb_lpf_ota_core_tg$3_0.v_b.t24 VSS.t1805 sg13_lv_nmos ad=0.19p pd=1.38u as=0.19p ps=1.38u w=1u l=0.13u
X80 iqmod_top_pex_half_1.iqmod_mixer_0.iqmod_mixer_half$1_0.iqmod_mixer_se2diff$2_0.iqmod_mixer_se2diff_half_tg$3_0.iqmod_mixer_se2diff_inv_NF54$8_0.vin.t0 iqmod_top_pex_half_1.iqmod_mixer_0.iqmod_mixer_half$1_0.iqmod_mixer_se2diff$2_0.iqmod_mixer_se2diff_half_tg$3_0.iqmod_mixer_se2diff_inv_NF18$8_0.vin.t0 VSS.t2181 VSS.t1910 sg13_lv_nmos ad=0.19p pd=1.38u as=0.19p ps=1.38u w=1u l=0.13u
X81 VDD.t442 iqmod_top_pex_half_1.iqmod_mfb_lpf_0.iqmod_mfb_lpf_half$1_0.iqmod_mfb_lpf_ota_core_hybrid_bm_half$2_0.iqmod_mfb_lpf_ota_core_inv_NF20$3_1.vin.t0 iqmod_top_pex_half_1.iqmod_mixer_0.vinn_IF.t68 VDD.t70 sg13_lv_pmos ad=1.14p pd=6.38u as=1.14p ps=6.38u w=6u l=1u
X82 VDD.t166 iqmod_top_pex_half_1.iqmod_mixer_0.iqmod_mixer_half$1_1.iqmod_mixer_se2diff$2_0.iqmod_mixer_se2diff_half_inv$3_0.iqmod_mixer_se2diff_inv_NF54$9_0.vin.t0 iqmod_top_pex_half_1.iqmod_mixer_0.iqmod_mixer_half$1_1.iqmod_mixer_tg$2_0.di_tg_ctrl.t34 VDD.t32 sg13_lv_pmos ad=0.57p pd=3.38u as=0.57p ps=3.38u w=3u l=0.13u
X83 VSS.t2147 iqmod_top_pex_half_1.iqmod_mixer_0.vinn_IF.t78 iqmod_top_pex_half_1.iqmod_mfb_lpf_0.iqmod_mfb_lpf_half$1_0.iqmod_mfb_lpf_ota_core_hybrid_bm_half$2_0.iqmod_mfb_lpf_ota_core_inv_NF20$3_0.vout.t47 VSS.t682 sg13_lv_nmos ad=0.19p pd=1.38u as=0.19p ps=1.38u w=1u l=1u
X84 VSS.t1761 iqmod_top_pex_half_0.iqmod_mfb_lpf_0.iqmod_mfb_lpf_half$1_0.iqmod_mfb_lpf_ota_core_hybrid_bm_half$2_0.iqmod_mfb_lpf_ota_core_tg$3_0.v_b.t38 iqmod_top_pex_half_0.iqmod_mixer_0.vinp_IF.t2 VSS.t1456 sg13_lv_nmos ad=0.19p pd=1.38u as=0.19p ps=1.38u w=1u l=1u
X85 iqmod_top_pex_half_0.iqmod_mfb_lpf_0.iqmod_mfb_lpf_half$1_0.iqmod_mfb_lpf_ota_core_hybrid_bm_half$2_0.iqmod_mfb_lpf_ota_core_inv_NF20$3_0.vout.t35 iqmod_top_pex_half_0.iqmod_mixer_0.vinp_IF.t79 VDD.t207 VDD.t78 sg13_lv_pmos ad=1.14p pd=6.38u as=1.14p ps=6.38u w=6u l=1u
X86 iqmod_top_pex_half_1.iqmod_mixer_0.iqmod_mixer_half$1_1.iqmod_mixer_se2diff$2_0.iqmod_mixer_se2diff_half_inv$3_0.iqmod_mixer_se2diff_inv_NF54$9_0.vin.t0 iqmod_top_pex_half_1.iqmod_mixer_0.iqmod_mixer_half$1_1.iqmod_mixer_se2diff$2_0.iqmod_mixer_se2diff_half_inv$3_0.iqmod_mixer_se2diff_inv_NF18$9_0.vin.t0 VDD.t56 VDD.t32 sg13_lv_pmos ad=0.57p pd=3.38u as=0.57p ps=3.38u w=3u l=0.13u
X87 iqmod_top_pex_half_1.iqmod_mixer_0.vinp_IF.t13 iqmod_top_pex_half_1.iqmod_mixer_0.iqmod_mixer_half$1_1.iqmod_mixer_tg$2_0.di_tg_ctrl.t54 voutp_I_RF.t5 VSS.t1201 sg13_lv_nmos ad=0.57p pd=3.38u as=0.57p ps=3.38u w=3u l=0.13u
X88 VSS.t1840 iqmod_top_pex_half_1.iqmod_mixer_0.iqmod_mixer_half$1_0.iqmod_mixer_se2diff$2_0.iqmod_mixer_se2diff_half_tg$3_0.iqmod_mixer_se2diff_inv_NF54$8_0.vin.t0 iqmod_top_pex_half_1.iqmod_mixer_0.iqmod_mixer_half$1_0.iqmod_mixer_tg$2_0.di_tg_ctrl_n.t15 VSS.t1613 sg13_lv_nmos ad=0.19p pd=1.38u as=0.19p ps=1.38u w=1u l=0.13u
X89 VDD.t1066 iqmod_top_pex_half_0.iqmod_mixer_0.iqmod_mixer_half$1_1.iqmod_mixer_se2diff$2_0.iqmod_mixer_se2diff_half_inv$3_0.iqmod_mixer_se2diff_inv_NF54$9_0.vin.t0 iqmod_top_pex_half_0.iqmod_mixer_0.iqmod_mixer_half$1_1.iqmod_mixer_tg$2_0.di_tg_ctrl.t49 VDD.t27 sg13_lv_pmos ad=0.57p pd=3.38u as=0.57p ps=3.38u w=3u l=0.13u
X90 iqmod_top_pex_half_0.iqmod_mixer_0.vinn_IF.t29 iqmod_top_pex_half_0.iqmod_mixer_0.iqmod_mixer_half$1_0.iqmod_mixer_tg$2_0.di_tg_ctrl.t54 voutn_Q_RF.t26 VSS.t82 sg13_lv_nmos ad=0.57p pd=3.38u as=0.57p ps=3.38u w=3u l=0.13u
X91 iqmod_top_pex_half_0.iqmod_mfb_lpf_0.iqmod_mfb_lpf_half$1_1.vinp.t4 iqmod_top_pex_half_0.iqmod_mfb_lpf_0.iqmod_mfb_lpf_half$1_1.iqmod_mfb_lpf_ota_core_hybrid_bm_half$2_0.iqmod_mfb_lpf_ota_core_tg$3_0.di_tg_ctrl_n.t7 iqmod_top_pex_half_0.iqmod_mfb_lpf_0.iqmod_mfb_lpf_half$1_1.iqmod_mfb_lpf_ota_core_hybrid_bm_half$2_0.iqmod_mfb_lpf_ota_core_inv_NF20$3_1.vin.t0 VDD.t78 sg13_lv_pmos ad=1.14p pd=6.38u as=1.14p ps=6.38u w=6u l=0.13u
X92 VSS.t590 VSS.t587 VSS.t589 VSS.t588 sg13_lv_nmos ad=0.34p pd=2.68u as=0 ps=0 w=1u l=0.13u
X93 iqmod_top_pex_half_0.iqmod_mixer_0.vinn_IF.t55 iqmod_top_pex_half_0.iqmod_mfb_lpf_0.iqmod_mfb_lpf_half$1_0.iqmod_mfb_lpf_ota_core_hybrid_bm_half$2_0.iqmod_mfb_lpf_ota_core_inv_NF20$3_1.vin.t0 VDD.t723 VDD.t63 sg13_lv_pmos ad=1.14p pd=6.38u as=1.14p ps=6.38u w=6u l=1u
X94 VSS.t1415 iqmod_top_pex_half_0.iqmod_mixer_0.iqmod_mixer_half$1_0.iqmod_mixer_se2diff$2_0.iqmod_mixer_se2diff_half_tg$3_0.iqmod_mixer_se2diff_inv_NF54$8_0.vin.t0 iqmod_top_pex_half_0.iqmod_mixer_0.iqmod_mixer_half$1_0.iqmod_mixer_tg$2_0.di_tg_ctrl_n.t15 VSS.t1414 sg13_lv_nmos ad=0.19p pd=1.38u as=0.19p ps=1.38u w=1u l=0.13u
X95 iqmod_top_pex_half_1.iqmod_mfb_lpf_0.iqmod_mfb_lpf_half$1_0.iqmod_mfb_lpf_ota_core_hybrid_bm_half$2_0.iqmod_mfb_lpf_ota_core_inv_NF20$3_0.vout.t42 iqmod_top_pex_half_1.iqmod_mixer_0.vinn_IF.t79 VDD.t874 VDD.t70 sg13_lv_pmos ad=1.14p pd=6.38u as=1.14p ps=6.38u w=6u l=1u
X96 VDD.t581 iqmod_top_pex_half_0.iqmod_mfb_lpf_0.iqmod_mfb_lpf_half$1_0.iqmod_mfb_lpf_ota_core_hybrid_bm_half$2_0.iqmod_mfb_lpf_ota_core_tg$3_0.v_a.t1 iqmod_top_pex_half_0.iqmod_mfb_lpf_0.iqmod_mfb_lpf_half$1_0.iqmod_mfb_lpf_ota_core_hybrid_bm_half$2_0.iqmod_mfb_lpf_ota_core_tg$3_0.v_b.t19 VDD.t63 sg13_lv_pmos ad=1.14p pd=6.38u as=1.14p ps=6.38u w=6u l=1u
X97 iqmod_top_pex_half_0.iqmod_mfb_lpf_0.iqmod_mfb_lpf_half$1_0.iqmod_mfb_lpf_ota_core_hybrid_bm_half$2_0.iqmod_mfb_lpf_ota_core_inv_NF20$3_0.vout.t23 iqmod_top_pex_half_0.iqmod_mfb_lpf_0.iqmod_mfb_lpf_half$1_1.iqmod_mfb_lpf_ota_core_hybrid_bm_half$2_0.iqmod_mfb_lpf_ota_core_tg$3_0.di_tg_ctrl_n.t4 iqmod_top_pex_half_0.iqmod_mfb_lpf_0.iqmod_mfb_lpf_half$1_0.iqmod_mfb_lpf_ota_core_hybrid_bm_half$2_0.iqmod_mfb_lpf_ota_core_inv_NF6$3_1.vout.t0 VDD.t78 sg13_lv_pmos ad=1.14p pd=6.38u as=1.14p ps=6.38u w=6u l=0.13u
X98 voutn_Q_RF.t0 iqmod_top_pex_half_0.iqmod_mixer_0.iqmod_mixer_half$1_0.iqmod_mixer_tg$2_0.di_tg_ctrl_n.t54 voutn_Q_RF.t0 VSS.t741 sg13_lv_nmos ad=0.57p pd=3.38u as=0 ps=0 w=3u l=0.13u
X99 iqmod_top_pex_half_1.iqmod_mixer_0.iqmod_mixer_half$1_1.iqmod_mixer_se2diff$2_0.iqmod_mixer_se2diff_half_tg$3_0.iqmod_mixer_se2diff_inv_NF54$8_0.vin.t0 iqmod_top_pex_half_1.iqmod_mixer_0.iqmod_mixer_half$1_1.iqmod_mixer_se2diff$2_0.iqmod_mixer_se2diff_half_tg$3_0.iqmod_mixer_se2diff_inv_NF18$8_0.vin.t0 VSS.t1652 VSS.t761 sg13_lv_nmos ad=0.19p pd=1.38u as=0.19p ps=1.38u w=1u l=0.13u
X100 iqmod_top_pex_half_1.iqmod_mixer_0.iqmod_mixer_half$1_0.iqmod_mixer_tg$2_0.di_tg_ctrl_n.t14 iqmod_top_pex_half_1.iqmod_mixer_0.iqmod_mixer_half$1_0.iqmod_mixer_se2diff$2_0.iqmod_mixer_se2diff_half_tg$3_0.iqmod_mixer_se2diff_inv_NF54$8_0.vin.t0 VSS.t1867 VSS.t1609 sg13_lv_nmos ad=0.19p pd=1.38u as=0.19p ps=1.38u w=1u l=0.13u
X101 VSS.t479 VSS.t476 VSS.t478 VSS.t477 sg13_lv_nmos ad=0.34p pd=2.68u as=0 ps=0 w=1u l=0.13u
X102 VDD.t440 iqmod_top_pex_half_1.iqmod_mfb_lpf_0.iqmod_mfb_lpf_half$1_0.iqmod_mfb_lpf_ota_core_hybrid_bm_half$2_0.iqmod_mfb_lpf_ota_core_inv_NF20$3_1.vin.t0 iqmod_top_pex_half_1.iqmod_mfb_lpf_0.iqmod_mfb_lpf_half$1_0.iqmod_mfb_lpf_ota_core_hybrid_bm_half$2_0.iqmod_mfb_lpf_ota_core_tg$3_0.v_a.t0 VDD.t70 sg13_lv_pmos ad=1.14p pd=6.38u as=1.14p ps=6.38u w=6u l=1u