* NGSPICE file created from chip_top.ext - technology: ihp-sg13g2

* Black-box entry subcircuit for sg13g2_decap_8 abstract view
.subckt sg13g2_decap_8 VDD VSS
.ends

* Black-box entry subcircuit for sg13g2_decap_4 abstract view
.subckt sg13g2_decap_4 VDD VSS
.ends

* Black-box entry subcircuit for sg13g2_fill_1 abstract view
.subckt sg13g2_fill_1 VDD VSS
.ends

* Black-box entry subcircuit for sg13g2_Filler200 abstract view
.subckt sg13g2_Filler200 iovdd iovss vdd vss
.ends

* Black-box entry subcircuit for sg13g2_fill_2 abstract view
.subckt sg13g2_fill_2 VDD VSS
.ends

* Black-box entry subcircuit for sg13g2_ip__ce_names abstract view
.subckt sg13g2_ip__ce_names
.ends

* Black-box entry subcircuit for sg13g2_IOPadInOut30mA abstract view
.subckt sg13g2_IOPadInOut30mA c2p c2p_en iovdd iovss p2c pad vdd vss
.ends

* Black-box entry subcircuit for sg13g2_Filler2000 abstract view
.subckt sg13g2_Filler2000 iovdd iovss vdd vss
.ends

* Black-box entry subcircuit for bondpad_70x70 abstract view
.subckt bondpad_70x70 pad
.ends

* Black-box entry subcircuit for sg13g2_Filler1000 abstract view
.subckt sg13g2_Filler1000 iovdd iovss vdd vss
.ends

* Black-box entry subcircuit for sg13g2_dlygate4sd3_1 abstract view
.subckt sg13g2_dlygate4sd3_1 X A VDD VSS
.ends

* Black-box entry subcircuit for sg13g2_IOPadVss abstract view
.subckt sg13g2_IOPadVss iovdd iovss vdd vss
.ends

* Black-box entry subcircuit for sg13g2_IOPadAnalog abstract view
.subckt sg13g2_IOPadAnalog iovdd iovss pad padbare padres vdd vss
.ends

* Black-box entry subcircuit for sg13g2_IOPadOut30mA abstract view
.subckt sg13g2_IOPadOut30mA c2p iovdd iovss pad vdd vss
.ends

* Black-box entry subcircuit for sg13g2_Corner abstract view
.subckt sg13g2_Corner iovdd iovss vdd vss
.ends

* Black-box entry subcircuit for sg13g2_IOPadVdd abstract view
.subckt sg13g2_IOPadVdd iovdd iovss vdd vss
.ends

* Black-box entry subcircuit for inverter_top abstract view
.subckt inverter_top di_spdt_ctrl_Q di_spdt_ctrl_I voutn_I_RF voutp_I_RF voutn_Q_RF voutp_Q_RF
+ di_analog_en vinp_Q vinn_Q vinn_I vinp_I di_lo_I di_ds_I_p di_ds_I_n di_lo_Ix di_lo_Qx
+ di_ds_Q_n di_ds_Q_p di_lo_Q VSS VDD
.ends

* Black-box entry subcircuit for sg13g2_ip__jku abstract view
.subckt sg13g2_ip__jku
.ends

* Black-box entry subcircuit for sg13g2_IOPadIn abstract view
.subckt sg13g2_IOPadIn iovdd iovss p2c pad vdd vss
.ends

* Black-box entry subcircuit for counter_top abstract view
.subckt counter_top I_ae Q_ae VDD VSS analog_en clk ds_I_n_i ds_I_n_o ds_I_oe ds_I_p_i
+ ds_I_p_o ds_Q_n_i ds_Q_n_o ds_Q_oe ds_Q_p_i ds_Q_p_o gpio_in[0] gpio_in[1] gpio_in[2]
+ gpio_in[3] gpio_out[0] gpio_out[1] gpio_out[2] gpio_out[3] lo_I_i lo_I_o lo_I_oe
+ lo_Ix_i lo_Ix_o lo_Q_i lo_Q_o lo_Q_oe lo_Qx_i lo_Qx_o reset rx scl sclk sda_i sda_o
+ sda_oe si so sram_ce tx
.ends

* Black-box entry subcircuit for sg13g2_ip__ce abstract view
.subckt sg13g2_ip__ce
.ends

* Black-box entry subcircuit for sg13g2_ip__jku_names abstract view
.subckt sg13g2_ip__jku_names
.ends

* Black-box entry subcircuit for sg13g2_IOPadIOVss abstract view
.subckt sg13g2_IOPadIOVss iovdd iovss vdd vss
.ends

* Black-box entry subcircuit for sg13g2_IOPadIOVdd abstract view
.subckt sg13g2_IOPadIOVdd iovdd iovss vdd vss
.ends

* Black-box entry subcircuit for sg13g2_antennanp abstract view
.subckt sg13g2_antennanp A VDD VSS
.ends

.subckt chip_top IOVDD IOVSS VDD VSS analog_PAD[0] analog_PAD[1] analog_PAD[2]
+ analog_PAD[3] analog_PAD[4] analog_PAD[5] analog_PAD[6] analog_PAD[7] bidir_PAD[0]
+ bidir_PAD[1] bidir_PAD[2] bidir_PAD[3] bidir_PAD[4] bidir_PAD[5] bidir_PAD[6] bidir_PAD[7]
+ bidir_PAD[8] clk_PAD input_PAD[0] input_PAD[1] input_PAD[2] input_PAD[3] input_PAD[4]
+ input_PAD[5] output_PAD[0] output_PAD[1] output_PAD[2] output_PAD[3] output_PAD[4]
+ output_PAD[5] output_PAD[6] output_PAD[7] output_PAD[8] rst_n_PAD
XFILLER_3_2401 VDD VSS sg13g2_decap_8
XFILLER_290_49 VDD VSS sg13g2_decap_8
XFILLER_60_1828 VDD VSS sg13g2_decap_8
XFILLER_288_1723 VDD VSS sg13g2_decap_8
XFILLER_223_21 VDD VSS sg13g2_decap_8
XFILLER_288_2479 VDD VSS sg13g2_decap_8
XFILLER_97_2430 VDD VSS sg13g2_decap_8
XFILLER_214_1688 VDD VSS sg13g2_decap_8
XFILLER_212_2080 VDD VSS sg13g2_decap_8
XFILLER_110_2332 VDD VSS sg13g2_decap_8
XFILLER_329_2443 VDD VSS sg13g2_decap_8
XFILLER_23_2395 VDD VSS sg13g2_decap_8
XFILLER_3_1722 VDD VSS sg13g2_decap_8
XFILLER_3_2478 VDD VSS sg13g2_decap_8
XFILLER_286_2192 VDD VSS sg13g2_decap_8
XFILLER_247_2143 VDD VSS sg13g2_decap_8
XFILLER_223_98 VDD VSS sg13g2_decap_8
XFILLER_299_14 VDD VSS sg13g2_decap_8
XFILLER_58_1702 VDD VSS sg13g2_decap_8
XFILLER_97_1751 VDD VSS sg13g2_decap_8
XFILLER_262_2619 VDD VSS sg13g2_decap_8
XFILLER_149_2564 VDD VSS sg13g2_decap_8
XFILLER_282_2045 VDD VSS sg13g2_decap_8
XFILLER_110_1653 VDD VSS sg13g2_decap_8
XFILLER_58_2458 VDD VSS sg13g2_decap_8
XFILLER_19_2409 VDD VSS sg13g2_decap_8
XFILLER_329_1764 VDD VSS sg13g2_decap_8
XFILLER_1_2191 VDD VSS sg13g2_decap_8
XFILLER_3_1799 VDD VSS sg13g2_decap_8
XFILLER_225_2430 VDD VSS sg13g2_decap_8
XFILLER_303_2605 VDD VSS sg13g2_decap_8
XFILLER_260_2332 VDD VSS sg13g2_decap_8
XFILLER_145_1716 VDD VSS sg13g2_decap_8
XFILLER_17_2122 VDD VSS sg13g2_decap_8
XFILLER_56_2171 VDD VSS sg13g2_decap_8
XFILLER_58_1779 VDD VSS sg13g2_decap_8
XFILLER_52_2024 VDD VSS sg13g2_decap_8
XFILLER_91_2073 VDD VSS sg13g2_decap_8
XFILLER_323_1330 VDD VSS sg13g2_decap_8
XFILLER_299_2542 VDD VSS sg13g2_decap_8
XFILLER_323_2086 VDD VSS sg13g2_decap_8
XFILLER_225_1751 VDD VSS sg13g2_decap_8
XFILLER_167_105 VDD VSS sg13g2_decap_8
XFILLER_108_2283 VDD VSS sg13g2_decap_8
XFILLER_303_1926 VDD VSS sg13g2_decap_8
XFILLER_260_1653 VDD VSS sg13g2_decap_8
XFILLER_104_2136 VDD VSS sg13g2_decap_8
XFILLER_143_2185 VDD VSS sg13g2_decap_8
XFILLER_17_2199 VDD VSS sg13g2_decap_8
XFILLER_30_2311 VDD VSS sg13g2_decap_8
XFILLER_32_1919 VDD VSS sg13g2_decap_8
XFILLER_71_1968 VDD VSS sg13g2_decap_8
XFILLER_299_1863 VDD VSS sg13g2_decap_8
XFILLER_69_2521 VDD VSS sg13g2_decap_8
XFILLER_295_1716 VDD VSS sg13g2_decap_8
XFILLER_301_2395 VDD VSS sg13g2_decap_8
XFILLER_121_2472 VDD VSS sg13g2_decap_8
XFILLER_182_119 VDD VSS sg13g2_decap_4
XFILLER_30_1632 VDD VSS sg13g2_decap_8
XFILLER_248_84 VDD VSS sg13g2_decap_8
XFILLER_30_2388 VDD VSS sg13g2_decap_8
XFILLER_325_647 VDD VSS sg13g2_decap_8
XFILLER_258_2283 VDD VSS sg13g2_decap_8
XFILLER_219_2234 VDD VSS sg13g2_decap_8
XFILLER_184_28 VDD VSS sg13g2_decap_8
XFILLER_195_2584 VDD VSS sg13g2_decap_8
XFILLER_293_2185 VDD VSS sg13g2_decap_8
XFILLER_254_2136 VDD VSS sg13g2_decap_8
XFILLER_69_1842 VDD VSS sg13g2_decap_8
XFILLER_121_1793 VDD VSS sg13g2_decap_8
XFILLER_69_2598 VDD VSS sg13g2_decap_8
XFILLER_11_1064 VDD VSS sg13g2_decap_8
XFILLER_191_2437 VDD VSS sg13g2_decap_8
XFILLER_156_2557 VDD VSS sg13g2_decap_8
XFILLER_324_168 VDD VSS sg13g2_decap_8
XFILLER_236_2570 VDD VSS sg13g2_decap_8
XFILLER_330_2002 VDD VSS sg13g2_decap_8
XFILLER_7_7 VDD VSS sg13g2_decap_8
XFILLER_117_1807 VDD VSS sg13g2_decap_8
XFILLER_271_2472 VDD VSS sg13g2_decap_8
XFILLER_232_2423 VDD VSS sg13g2_decap_8
XFILLER_28_2262 VDD VSS sg13g2_decap_8
XFILLER_191_1758 VDD VSS sg13g2_decap_8
XFILLER_152_1709 VDD VSS sg13g2_decap_8
XFILLER_117_77 VDD VSS sg13g2_decap_8
XFILLER_8_2345 VDD VSS sg13g2_decap_8
XFILLER_24_2115 VDD VSS sg13g2_decap_8
XFILLER_63_2164 VDD VSS sg13g2_decap_8
XFILLER_321_875 VDD VSS sg13g2_decap_8
XFILLER_236_1891 VDD VSS sg13g2_decap_8
XFILLER_330_1323 VDD VSS sg13g2_decap_8
XFILLER_330_2079 VDD VSS sg13g2_decap_8
XFILLER_115_2276 VDD VSS sg13g2_decap_8
XFILLER_310_1919 VDD VSS sg13g2_decap_8
XFILLER_271_1793 VDD VSS sg13g2_decap_8
XFILLER_232_1744 VDD VSS sg13g2_decap_8
XFILLER_320_385 VDD VSS sg13g2_decap_8
XFILLER_41_2451 VDD VSS sg13g2_decap_8
XFILLER_133_21 VDD VSS sg13g2_decap_8
XFILLER_8_1666 VDD VSS sg13g2_decap_8
XFILLER_98_2227 VDD VSS sg13g2_decap_8
XFILLER_111_2129 VDD VSS sg13g2_decap_8
XFILLER_4_1519 VDD VSS sg13g2_decap_8
XFILLER_189_1632 VDD VSS sg13g2_decap_8
XFILLER_267_1807 VDD VSS sg13g2_decap_8
XFILLER_93_14 VDD VSS sg13g2_decap_8
XFILLER_167_2620 VDD VSS sg13g2_decap_8
XFILLER_76_2514 VDD VSS sg13g2_decap_8
XFILLER_41_1772 VDD VSS sg13g2_decap_8
XFILLER_133_98 VDD VSS sg13g2_decap_8
XFILLER_2_1232 VDD VSS sg13g2_decap_8
XFILLER_308_2549 VDD VSS sg13g2_decap_8
XFILLER_128_2626 VDD VSS sg13g2_decap_8
XFILLER_226_2227 VDD VSS sg13g2_decap_8
XFILLER_260_112 VDD VSS sg13g2_decap_8
XFILLER_109_2003 VDD VSS sg13g2_decap_8
XFILLER_265_2276 VDD VSS sg13g2_decap_8
XFILLER_260_123 VDD VSS sg13g2_fill_1
XFILLER_76_1835 VDD VSS sg13g2_decap_8
XFILLER_261_2129 VDD VSS sg13g2_decap_8
XFILLER_26_63 VDD VSS sg13g2_decap_8
XFILLER_328_1274 VDD VSS sg13g2_decap_8
XFILLER_14_623 VDD VSS sg13g2_decap_8
XFILLER_306_2262 VDD VSS sg13g2_decap_8
XFILLER_324_1127 VDD VSS sg13g2_decap_8
XFILLER_128_1947 VDD VSS sg13g2_decap_8
XFILLER_243_2563 VDD VSS sg13g2_decap_8
XFILLER_204_2514 VDD VSS sg13g2_decap_8
XFILLER_302_2115 VDD VSS sg13g2_decap_8
XFILLER_13_133 VDD VSS sg13g2_decap_8
XFILLER_158_105 VDD VSS sg13g2_decap_8
XFILLER_289_91 VDD VSS sg13g2_decap_8
XFILLER_35_2255 VDD VSS sg13g2_decap_8
XFILLER_329_931 VDD VSS sg13g2_decap_8
XFILLER_208_1982 VDD VSS sg13g2_decap_8
XFILLER_31_2108 VDD VSS sg13g2_decap_8
XFILLER_70_2157 VDD VSS sg13g2_decap_8
XFILLER_278_2626 VDD VSS sg13g2_decap_8
XFILLER_298_2052 VDD VSS sg13g2_decap_8
XFILLER_259_2003 VDD VSS sg13g2_decap_8
XFILLER_9_126 VDD VSS sg13g2_decap_8
XFILLER_126_1660 VDD VSS sg13g2_decap_8
XFILLER_196_2304 VDD VSS sg13g2_decap_8
XFILLER_13_2520 VDD VSS sg13g2_decap_8
XFILLER_243_1884 VDD VSS sg13g2_decap_8
XFILLER_204_1835 VDD VSS sg13g2_decap_8
XIO_FILL_IO_EAST_7_15 IOVDD IOVSS VDD VSS sg13g2_Filler200
XFILLER_52_2591 VDD VSS sg13g2_decap_8
XFILLER_328_441 VDD VSS sg13g2_decap_8
XFILLER_122_2269 VDD VSS sg13g2_decap_8
XFILLER_220_0 VDD VSS sg13g2_decap_8
XFILLER_10_840 VDD VSS sg13g2_decap_8
XFILLER_319_2612 VDD VSS sg13g2_decap_8
XFILLER_173_119 VDD VSS sg13g2_decap_4
XFILLER_318_0 VDD VSS sg13g2_decap_8
XFILLER_278_1947 VDD VSS sg13g2_decap_8
XFILLER_13_1841 VDD VSS sg13g2_decap_8
XFILLER_196_1625 VDD VSS sg13g2_decap_8
XFILLER_158_84 VDD VSS sg13g2_decap_8
XFILLER_6_833 VDD VSS sg13g2_decap_8
XFILLER_100_1800 VDD VSS sg13g2_decap_8
XFILLER_48_2605 VDD VSS sg13g2_decap_8
XFILLER_13_2597 VDD VSS sg13g2_decap_8
XFILLER_68_2031 VDD VSS sg13g2_decap_8
XFILLER_174_2613 VDD VSS sg13g2_decap_8
XFILLER_100_2556 VDD VSS sg13g2_decap_8
XFILLER_308_21 VDD VSS sg13g2_decap_8
XFILLER_83_2507 VDD VSS sg13g2_decap_8
XFILLER_319_1933 VDD VSS sg13g2_decap_8
XFILLER_5_343 VDD VSS sg13g2_decap_8
XFILLER_276_1660 VDD VSS sg13g2_decap_8
XFILLER_237_2367 VDD VSS sg13g2_decap_8
XFILLER_135_2619 VDD VSS sg13g2_decap_8
XFILLER_194_2094 VDD VSS sg13g2_decap_8
XFILLER_330_105 VDD VSS sg13g2_decap_8
XFILLER_48_1926 VDD VSS sg13g2_decap_8
XFILLER_87_1975 VDD VSS sg13g2_decap_8
XFILLER_272_2269 VDD VSS sg13g2_decap_8
XFILLER_29_2059 VDD VSS sg13g2_decap_8
XFILLER_100_1877 VDD VSS sg13g2_decap_8
XFILLER_308_98 VDD VSS sg13g2_decap_8
XFILLER_83_1828 VDD VSS sg13g2_decap_8
XFILLER_81_2220 VDD VSS sg13g2_decap_8
XFILLER_237_1688 VDD VSS sg13g2_decap_8
XFILLER_235_2080 VDD VSS sg13g2_decap_8
XFILLER_133_2332 VDD VSS sg13g2_decap_8
XFILLER_313_2255 VDD VSS sg13g2_decap_8
XFILLER_250_1800 VDD VSS sg13g2_decap_8
XFILLER_250_2556 VDD VSS sg13g2_decap_8
XFILLER_211_2507 VDD VSS sg13g2_decap_8
XFILLER_46_2395 VDD VSS sg13g2_decap_8
XFILLER_1_560 VDD VSS sg13g2_decap_8
XFILLER_3_56 VDD VSS sg13g2_decap_8
XFILLER_324_42 VDD VSS sg13g2_decap_8
XFILLER_81_2297 VDD VSS sg13g2_decap_8
XFILLER_42_2248 VDD VSS sg13g2_decap_8
XFILLER_215_1975 VDD VSS sg13g2_decap_8
XFILLER_285_2619 VDD VSS sg13g2_decap_8
XFILLER_133_1653 VDD VSS sg13g2_decap_8
XFILLER_250_1877 VDD VSS sg13g2_decap_8
XFILLER_211_1828 VDD VSS sg13g2_decap_8
XFILLER_67_70 VDD VSS sg13g2_decap_8
XFILLER_7_1176 VDD VSS sg13g2_decap_8
XFILLER_20_2535 VDD VSS sg13g2_decap_8
XFILLER_330_1890 VDD VSS sg13g2_decap_8
XFILLER_248_2430 VDD VSS sg13g2_decap_8
XFILLER_0_2618 VDD VSS sg13g2_decap_8
XFILLER_3_1029 VDD VSS sg13g2_decap_8
XFILLER_168_1716 VDD VSS sg13g2_decap_8
XFILLER_111_1940 VDD VSS sg13g2_decap_8
XFILLER_283_2332 VDD VSS sg13g2_decap_8
XFILLER_79_2171 VDD VSS sg13g2_decap_8
XFILLER_75_2024 VDD VSS sg13g2_decap_8
XFILLER_181_2606 VDD VSS sg13g2_decap_8
XFILLER_326_1904 VDD VSS sg13g2_decap_8
XFILLER_251_112 VDD VSS sg13g2_decap_8
XFILLER_20_1856 VDD VSS sg13g2_decap_8
XFILLER_248_1751 VDD VSS sg13g2_decap_8
XFILLER_209_1702 VDD VSS sg13g2_decap_8
XFILLER_251_123 VDD VSS sg13g2_fill_1
XFILLER_0_1939 VDD VSS sg13g2_decap_8
XFILLER_209_2458 VDD VSS sg13g2_decap_8
XFILLER_307_2059 VDD VSS sg13g2_decap_8
XFILLER_283_1653 VDD VSS sg13g2_decap_8
XFILLER_127_2136 VDD VSS sg13g2_decap_8
XFILLER_92_2360 VDD VSS sg13g2_decap_8
XFILLER_53_2311 VDD VSS sg13g2_decap_8
XFILLER_83_91 VDD VSS sg13g2_decap_8
XFILLER_55_1919 VDD VSS sg13g2_decap_8
XFILLER_94_1968 VDD VSS sg13g2_decap_8
XFILLER_269_28 VDD VSS sg13g2_decap_8
XFILLER_324_2373 VDD VSS sg13g2_decap_8
XFILLER_109_2570 VDD VSS sg13g2_decap_8
XFILLER_320_2226 VDD VSS sg13g2_decap_8
XFILLER_209_1779 VDD VSS sg13g2_decap_8
XFILLER_207_2171 VDD VSS sg13g2_decap_8
XFILLER_199_91 VDD VSS sg13g2_decap_8
XFILLER_149_105 VDD VSS sg13g2_decap_8
XFILLER_144_2472 VDD VSS sg13g2_decap_8
XFILLER_105_2423 VDD VSS sg13g2_decap_8
XFILLER_261_1940 VDD VSS sg13g2_decap_8
XFILLER_18_1730 VDD VSS sg13g2_decap_8
XFILLER_14_2317 VDD VSS sg13g2_decap_8
XFILLER_242_2073 VDD VSS sg13g2_decap_8
XFILLER_203_2024 VDD VSS sg13g2_decap_8
XFILLER_18_2486 VDD VSS sg13g2_decap_8
XFILLER_53_1632 VDD VSS sg13g2_decap_8
XFILLER_92_1681 VDD VSS sg13g2_decap_8
XFILLER_140_2325 VDD VSS sg13g2_decap_8
XFILLER_53_2388 VDD VSS sg13g2_decap_8
XFILLER_324_1694 VDD VSS sg13g2_decap_8
XFILLER_109_1891 VDD VSS sg13g2_decap_8
XFILLER_320_1547 VDD VSS sg13g2_decap_8
XFILLER_277_2136 VDD VSS sg13g2_decap_8
XFILLER_105_1744 VDD VSS sg13g2_decap_8
XFILLER_144_1793 VDD VSS sg13g2_decap_8
XFILLER_220_2360 VDD VSS sg13g2_decap_8
XFILLER_222_1968 VDD VSS sg13g2_decap_8
XFILLER_12_2030 VDD VSS sg13g2_decap_8
XFILLER_14_1638 VDD VSS sg13g2_decap_8
XFILLER_179_2557 VDD VSS sg13g2_decap_8
XFILLER_164_119 VDD VSS sg13g2_decap_4
XFILLER_140_1646 VDD VSS sg13g2_decap_8
XFILLER_259_2570 VDD VSS sg13g2_decap_8
XFILLER_9_693 VDD VSS sg13g2_decap_8
XFILLER_285_49 VDD VSS sg13g2_decap_8
XFILLER_318_2122 VDD VSS sg13g2_decap_8
XFILLER_218_21 VDD VSS sg13g2_decap_8
XFILLER_66_0 VDD VSS sg13g2_decap_8
XFILLER_294_2472 VDD VSS sg13g2_decap_8
XFILLER_255_2423 VDD VSS sg13g2_decap_8
XFILLER_220_1681 VDD VSS sg13g2_decap_8
XFILLER_12_1351 VDD VSS sg13g2_decap_8
XFILLER_175_1709 VDD VSS sg13g2_decap_8
XFILLER_334_455 VDD VSS sg13g2_decap_8
XFILLER_290_2325 VDD VSS sg13g2_decap_8
XFILLER_47_2115 VDD VSS sg13g2_decap_8
XFILLER_86_2164 VDD VSS sg13g2_decap_8
XFILLER_31_1996 VDD VSS sg13g2_decap_8
XFILLER_259_1891 VDD VSS sg13g2_decap_8
XFILLER_82_2017 VDD VSS sg13g2_decap_8
XFILLER_321_105 VDD VSS sg13g2_decap_8
XFILLER_138_2276 VDD VSS sg13g2_decap_8
XFILLER_318_2199 VDD VSS sg13g2_decap_8
XFILLER_294_1793 VDD VSS sg13g2_decap_8
XFILLER_255_1744 VDD VSS sg13g2_decap_8
XFILLER_218_98 VDD VSS sg13g2_decap_8
XFILLER_64_2451 VDD VSS sg13g2_decap_8
XFILLER_25_2402 VDD VSS sg13g2_decap_8
XFILLER_9_2632 VDD VSS sg13g2_decap_8
XFILLER_290_1646 VDD VSS sg13g2_decap_8
XFILLER_134_2129 VDD VSS sg13g2_decap_8
XFILLER_9_2643 VDD VSS sg13g2_fill_2
XFILLER_60_2304 VDD VSS sg13g2_decap_8
XFILLER_331_1610 VDD VSS sg13g2_decap_8
XFILLER_331_2366 VDD VSS sg13g2_decap_8
XFILLER_116_2563 VDD VSS sg13g2_decap_8
XFILLER_330_672 VDD VSS sg13g2_decap_8
XFILLER_29_1870 VDD VSS sg13g2_decap_8
XFILLER_214_2164 VDD VSS sg13g2_decap_8
XFILLER_234_42 VDD VSS sg13g2_decap_8
XFILLER_99_2514 VDD VSS sg13g2_decap_8
XFILLER_9_1953 VDD VSS sg13g2_decap_8
XFILLER_25_1723 VDD VSS sg13g2_decap_8
XFILLER_64_1772 VDD VSS sg13g2_decap_8
XFILLER_112_2416 VDD VSS sg13g2_decap_8
XFILLER_210_2017 VDD VSS sg13g2_decap_8
XFILLER_25_2479 VDD VSS sg13g2_decap_8
XFILLER_5_1806 VDD VSS sg13g2_decap_8
XFILLER_60_1625 VDD VSS sg13g2_decap_8
XFILLER_331_1687 VDD VSS sg13g2_decap_8
XFILLER_288_2276 VDD VSS sg13g2_decap_8
XFILLER_249_2227 VDD VSS sg13g2_decap_8
XFILLER_116_1884 VDD VSS sg13g2_decap_8
XFILLER_99_1835 VDD VSS sg13g2_decap_8
XFILLER_284_2129 VDD VSS sg13g2_decap_8
XFILLER_112_1737 VDD VSS sg13g2_decap_8
XFILLER_329_2240 VDD VSS sg13g2_decap_8
XFILLER_23_2192 VDD VSS sg13g2_decap_8
XFILLER_3_2275 VDD VSS sg13g2_decap_8
XFILLER_103_35 VDD VSS sg13g2_decap_8
XFILLER_266_2563 VDD VSS sg13g2_decap_8
XFILLER_227_2514 VDD VSS sg13g2_decap_8
XFILLER_242_112 VDD VSS sg13g2_decap_8
XFILLER_262_2416 VDD VSS sg13g2_decap_8
XFILLER_250_63 VDD VSS sg13g2_decap_8
XFILLER_242_123 VDD VSS sg13g2_fill_1
XFILLER_19_2206 VDD VSS sg13g2_decap_8
XFILLER_58_2255 VDD VSS sg13g2_decap_8
XFILLER_329_1561 VDD VSS sg13g2_decap_8
XFILLER_325_2148 VDD VSS sg13g2_decap_8
XFILLER_63_28 VDD VSS sg13g2_decap_8
XFILLER_3_1596 VDD VSS sg13g2_decap_8
XFILLER_54_2108 VDD VSS sg13g2_decap_8
XFILLER_93_2157 VDD VSS sg13g2_decap_8
XFILLER_149_1660 VDD VSS sg13g2_decap_8
XFILLER_266_1884 VDD VSS sg13g2_decap_8
XFILLER_227_1835 VDD VSS sg13g2_decap_8
XFILLER_303_2402 VDD VSS sg13g2_decap_8
XFILLER_179_28 VDD VSS sg13g2_decap_8
XFILLER_36_2542 VDD VSS sg13g2_decap_8
XFILLER_262_1737 VDD VSS sg13g2_decap_8
XFILLER_75_2591 VDD VSS sg13g2_decap_8
XFILLER_145_2269 VDD VSS sg13g2_decap_8
XFILLER_162_2550 VDD VSS sg13g2_decap_8
XFILLER_325_1469 VDD VSS sg13g2_decap_8
XFILLER_71_2444 VDD VSS sg13g2_decap_8
XFILLER_307_1870 VDD VSS sg13g2_decap_8
XFILLER_144_7 VDD VSS sg13g2_decap_8
XFILLER_108_2080 VDD VSS sg13g2_decap_8
XFILLER_303_1723 VDD VSS sg13g2_decap_8
XFILLER_123_1800 VDD VSS sg13g2_decap_8
XFILLER_303_2479 VDD VSS sg13g2_decap_8
XFILLER_11_637 VDD VSS sg13g2_decap_8
XFILLER_329_238 VDD VSS sg13g2_decap_8
XFILLER_123_2556 VDD VSS sg13g2_decap_8
XFILLER_221_2157 VDD VSS sg13g2_decap_8
XFILLER_36_1863 VDD VSS sg13g2_decap_8
XFILLER_32_1716 VDD VSS sg13g2_decap_8
XFILLER_71_1765 VDD VSS sg13g2_decap_8
XFILLER_299_1660 VDD VSS sg13g2_decap_8
XFILLER_155_119 VDD VSS sg13g2_decap_4
XFILLER_10_147 VDD VSS sg13g2_decap_8
XFILLER_203_2591 VDD VSS sg13g2_decap_8
XFILLER_197_1912 VDD VSS sg13g2_decap_8
XFILLER_12_21 VDD VSS sg13g2_decap_8
XFILLER_301_2192 VDD VSS sg13g2_decap_8
XFILLER_311_7 VDD VSS sg13g2_decap_8
XFILLER_295_2269 VDD VSS sg13g2_decap_8
XFILLER_195_49 VDD VSS sg13g2_decap_8
XFILLER_123_1877 VDD VSS sg13g2_decap_8
XFILLER_326_945 VDD VSS sg13g2_decap_8
XFILLER_13_1148 VDD VSS sg13g2_decap_8
XFILLER_128_21 VDD VSS sg13g2_decap_8
XFILLER_30_2185 VDD VSS sg13g2_decap_8
XFILLER_258_2080 VDD VSS sg13g2_decap_8
XFILLER_219_2031 VDD VSS sg13g2_decap_8
XFILLER_325_455 VDD VSS sg13g2_fill_1
XFILLER_195_2381 VDD VSS sg13g2_decap_8
XFILLER_273_1800 VDD VSS sg13g2_decap_8
XFILLER_197_1989 VDD VSS sg13g2_decap_8
XFILLER_273_2556 VDD VSS sg13g2_decap_8
XFILLER_234_2507 VDD VSS sg13g2_decap_8
XFILLER_69_2395 VDD VSS sg13g2_decap_8
XFILLER_88_14 VDD VSS sg13g2_decap_8
XFILLER_12_98 VDD VSS sg13g2_decap_8
XFILLER_191_2234 VDD VSS sg13g2_decap_8
XFILLER_312_105 VDD VSS sg13g2_decap_8
XFILLER_275_93 VDD VSS sg13g2_decap_8
XFILLER_3_847 VDD VSS sg13g2_decap_8
XFILLER_65_2248 VDD VSS sg13g2_decap_8
XFILLER_128_98 VDD VSS sg13g2_decap_8
XFILLER_332_1407 VDD VSS sg13g2_decap_8
XFILLER_238_1975 VDD VSS sg13g2_decap_8
XFILLER_314_2542 VDD VSS sg13g2_decap_8
XFILLER_156_1653 VDD VSS sg13g2_decap_8
XFILLER_273_1877 VDD VSS sg13g2_decap_8
XFILLER_232_2220 VDD VSS sg13g2_decap_8
XFILLER_234_1828 VDD VSS sg13g2_decap_8
XFILLER_2_357 VDD VSS sg13g2_decap_8
XFILLER_8_2142 VDD VSS sg13g2_decap_8
XFILLER_82_2584 VDD VSS sg13g2_decap_8
XFILLER_43_2535 VDD VSS sg13g2_decap_8
XFILLER_144_42 VDD VSS sg13g2_decap_8
XFILLER_321_672 VDD VSS sg13g2_decap_8
XFILLER_330_1120 VDD VSS sg13g2_decap_8
XFILLER_314_1863 VDD VSS sg13g2_decap_8
XFILLER_134_1940 VDD VSS sg13g2_decap_8
XFILLER_291_70 VDD VSS sg13g2_decap_8
XFILLER_310_1716 VDD VSS sg13g2_decap_8
XFILLER_320_182 VDD VSS sg13g2_decap_8
XFILLER_115_2073 VDD VSS sg13g2_decap_8
XFILLER_232_2297 VDD VSS sg13g2_decap_8
XFILLER_8_1463 VDD VSS sg13g2_decap_8
XFILLER_98_2024 VDD VSS sg13g2_decap_8
XFILLER_130_2549 VDD VSS sg13g2_decap_8
XFILLER_43_1856 VDD VSS sg13g2_decap_8
XFILLER_4_1316 VDD VSS sg13g2_decap_8
XFILLER_330_1197 VDD VSS sg13g2_decap_8
XFILLER_210_2584 VDD VSS sg13g2_decap_8
XFILLER_76_2311 VDD VSS sg13g2_decap_8
XFILLER_78_1919 VDD VSS sg13g2_decap_8
XFILLER_170_0 VDD VSS sg13g2_decap_8
XFILLER_233_112 VDD VSS sg13g2_decap_8
XFILLER_37_84 VDD VSS sg13g2_decap_8
XFILLER_268_0 VDD VSS sg13g2_decap_8
XFILLER_308_2346 VDD VSS sg13g2_decap_8
XFILLER_128_2423 VDD VSS sg13g2_decap_8
XFILLER_284_1940 VDD VSS sg13g2_decap_8
XFILLER_160_63 VDD VSS sg13g2_decap_8
XFILLER_233_123 VDD VSS sg13g2_fill_1
XFILLER_265_2073 VDD VSS sg13g2_decap_8
XFILLER_226_2024 VDD VSS sg13g2_decap_8
XFILLER_76_1632 VDD VSS sg13g2_decap_8
XFILLER_280_2549 VDD VSS sg13g2_decap_8
XFILLER_167_2494 VDD VSS sg13g2_decap_8
XFILLER_76_2388 VDD VSS sg13g2_decap_8
XFILLER_37_2339 VDD VSS sg13g2_decap_8
XFILLER_328_1071 VDD VSS sg13g2_decap_8
XFILLER_14_420 VDD VSS sg13g2_decap_8
XFILLER_321_2513 VDD VSS sg13g2_decap_8
XFILLER_308_1667 VDD VSS sg13g2_decap_8
XFILLER_128_1744 VDD VSS sg13g2_decap_8
XFILLER_243_2360 VDD VSS sg13g2_decap_8
XFILLER_204_2311 VDD VSS sg13g2_decap_8
XFILLER_245_1968 VDD VSS sg13g2_decap_8
XFILLER_206_1919 VDD VSS sg13g2_decap_8
XFILLER_310_77 VDD VSS sg13g2_decap_8
XFILLER_141_2612 VDD VSS sg13g2_decap_8
XFILLER_163_1646 VDD VSS sg13g2_decap_8
XFILLER_15_2626 VDD VSS sg13g2_decap_8
XFILLER_35_2052 VDD VSS sg13g2_decap_8
XFILLER_50_2528 VDD VSS sg13g2_decap_8
XFILLER_321_1834 VDD VSS sg13g2_decap_8
XFILLER_14_497 VDD VSS sg13g2_decap_8
XFILLER_278_2423 VDD VSS sg13g2_decap_8
XFILLER_243_1681 VDD VSS sg13g2_decap_8
XFILLER_204_1632 VDD VSS sg13g2_decap_8
XFILLER_198_1709 VDD VSS sg13g2_decap_8
XFILLER_196_2101 VDD VSS sg13g2_decap_8
XFILLER_204_2388 VDD VSS sg13g2_decap_8
XFILLER_141_1933 VDD VSS sg13g2_decap_8
XFILLER_15_1947 VDD VSS sg13g2_decap_8
XFILLER_54_1996 VDD VSS sg13g2_decap_8
XFILLER_122_2066 VDD VSS sg13g2_decap_8
XFILLER_146_119 VDD VSS sg13g2_decap_4
XFILLER_319_42 VDD VSS sg13g2_decap_8
XFILLER_50_1849 VDD VSS sg13g2_decap_8
XFILLER_278_1744 VDD VSS sg13g2_decap_8
XFILLER_6_630 VDD VSS sg13g2_decap_8
XFILLER_291_2612 VDD VSS sg13g2_decap_8
XFILLER_87_2451 VDD VSS sg13g2_decap_8
XFILLER_48_2402 VDD VSS sg13g2_decap_8
XFILLER_13_2394 VDD VSS sg13g2_decap_8
XFILLER_100_2353 VDD VSS sg13g2_decap_8
XFILLER_196_2178 VDD VSS sg13g2_decap_8
XFILLER_83_2304 VDD VSS sg13g2_decap_8
XFILLER_319_1730 VDD VSS sg13g2_decap_8
XFILLER_5_140 VDD VSS sg13g2_decap_8
XFILLER_319_2486 VDD VSS sg13g2_decap_8
XFILLER_139_2563 VDD VSS sg13g2_decap_8
XFILLER_237_2164 VDD VSS sg13g2_decap_8
XFILLER_303_105 VDD VSS sg13g2_decap_8
XFILLER_315_2339 VDD VSS sg13g2_decap_8
XFILLER_291_1933 VDD VSS sg13g2_decap_8
XFILLER_48_1723 VDD VSS sg13g2_decap_8
XFILLER_135_2416 VDD VSS sg13g2_decap_8
XFILLER_332_959 VDD VSS sg13g2_decap_8
XFILLER_272_2066 VDD VSS sg13g2_decap_8
XFILLER_233_2017 VDD VSS sg13g2_decap_8
XFILLER_87_1772 VDD VSS sg13g2_decap_8
XFILLER_100_1674 VDD VSS sg13g2_decap_8
XFILLER_48_2479 VDD VSS sg13g2_decap_8
XFILLER_83_1625 VDD VSS sg13g2_decap_8
XFILLER_331_469 VDD VSS sg13g2_decap_8
XFILLER_215_2451 VDD VSS sg13g2_decap_8
XFILLER_139_1884 VDD VSS sg13g2_decap_8
XFILLER_313_2052 VDD VSS sg13g2_decap_8
XFILLER_135_1737 VDD VSS sg13g2_decap_8
XFILLER_250_2353 VDD VSS sg13g2_decap_8
XFILLER_211_2304 VDD VSS sg13g2_decap_8
XFILLER_46_2192 VDD VSS sg13g2_decap_8
XFILLER_170_1639 VDD VSS sg13g2_decap_8
XFILLER_61_1912 VDD VSS sg13g2_decap_8
XFILLER_22_2619 VDD VSS sg13g2_decap_8
XFILLER_78_91 VDD VSS sg13g2_decap_8
XFILLER_42_2045 VDD VSS sg13g2_decap_8
XFILLER_81_2094 VDD VSS sg13g2_decap_8
XFILLER_332_1974 VDD VSS sg13g2_decap_8
XFILLER_289_2563 VDD VSS sg13g2_decap_8
XFILLER_215_1772 VDD VSS sg13g2_decap_8
XFILLER_285_2416 VDD VSS sg13g2_decap_8
XFILLER_250_1674 VDD VSS sg13g2_decap_8
XFILLER_211_1625 VDD VSS sg13g2_decap_8
XFILLER_20_2332 VDD VSS sg13g2_decap_8
XFILLER_4_2562 VDD VSS sg13g2_decap_8
XFILLER_61_1989 VDD VSS sg13g2_decap_8
XFILLER_77_2108 VDD VSS sg13g2_decap_8
XFILLER_204_56 VDD VSS sg13g2_decap_8
XFILLER_0_2415 VDD VSS sg13g2_decap_8
XFILLER_289_1884 VDD VSS sg13g2_decap_8
XFILLER_285_1737 VDD VSS sg13g2_decap_8
XFILLER_111_2493 VDD VSS sg13g2_decap_8
XFILLER_98_2591 VDD VSS sg13g2_decap_8
XFILLER_59_2542 VDD VSS sg13g2_decap_8
XFILLER_185_2550 VDD VSS sg13g2_decap_8
XFILLER_224_112 VDD VSS sg13g2_decap_8
XFILLER_94_2444 VDD VSS sg13g2_decap_8
XFILLER_326_1701 VDD VSS sg13g2_decap_8
XFILLER_224_123 VDD VSS sg13g2_fill_1
XFILLER_4_1883 VDD VSS sg13g2_decap_8
XFILLER_20_1653 VDD VSS sg13g2_decap_8
XFILLER_326_2457 VDD VSS sg13g2_decap_8
XFILLER_0_1736 VDD VSS sg13g2_decap_8
XFILLER_209_2255 VDD VSS sg13g2_decap_8
XFILLER_146_1800 VDD VSS sg13g2_decap_8
XFILLER_146_2556 VDD VSS sg13g2_decap_8
XFILLER_107_2507 VDD VSS sg13g2_decap_8
XFILLER_205_2108 VDD VSS sg13g2_decap_8
XFILLER_59_1863 VDD VSS sg13g2_decap_8
XFILLER_244_2157 VDD VSS sg13g2_decap_8
XFILLER_181_1702 VDD VSS sg13g2_decap_8
XFILLER_142_2409 VDD VSS sg13g2_decap_8
XFILLER_55_1716 VDD VSS sg13g2_decap_8
XFILLER_94_1765 VDD VSS sg13g2_decap_8
XFILLER_326_1778 VDD VSS sg13g2_decap_8
XFILLER_324_2170 VDD VSS sg13g2_decap_8
XFILLER_226_2591 VDD VSS sg13g2_decap_8
XFILLER_220_77 VDD VSS sg13g2_decap_8
XFILLER_320_2023 VDD VSS sg13g2_decap_8
XFILLER_107_1828 VDD VSS sg13g2_decap_8
XFILLER_105_2220 VDD VSS sg13g2_decap_8
XFILLER_146_1877 VDD VSS sg13g2_decap_8
XFILLER_300_2619 VDD VSS sg13g2_decap_8
XFILLER_261_2493 VDD VSS sg13g2_decap_8
XFILLER_222_2444 VDD VSS sg13g2_decap_8
XFILLER_18_2283 VDD VSS sg13g2_decap_8
XFILLER_14_2114 VDD VSS sg13g2_decap_8
XFILLER_140_2122 VDD VSS sg13g2_decap_8
XFILLER_53_2185 VDD VSS sg13g2_decap_8
XFILLER_324_1491 VDD VSS sg13g2_decap_8
XFILLER_320_1344 VDD VSS sg13g2_decap_8
XFILLER_296_1800 VDD VSS sg13g2_decap_8
XFILLER_296_2556 VDD VSS sg13g2_decap_8
XFILLER_257_2507 VDD VSS sg13g2_decap_8
XFILLER_137_119 VDD VSS sg13g2_decap_4
XFILLER_105_2297 VDD VSS sg13g2_decap_8
XFILLER_222_1765 VDD VSS sg13g2_decap_8
XFILLER_229_42 VDD VSS sg13g2_decap_8
XFILLER_14_1435 VDD VSS sg13g2_decap_8
XFILLER_292_2409 VDD VSS sg13g2_decap_8
XFILLER_31_2472 VDD VSS sg13g2_decap_8
XFILLER_88_2248 VDD VSS sg13g2_decap_8
XFILLER_140_2199 VDD VSS sg13g2_decap_8
XFILLER_9_490 VDD VSS sg13g2_decap_8
XFILLER_179_1653 VDD VSS sg13g2_decap_8
XFILLER_255_2220 VDD VSS sg13g2_decap_8
XFILLER_296_1877 VDD VSS sg13g2_decap_8
XFILLER_257_1828 VDD VSS sg13g2_decap_8
XFILLER_192_2521 VDD VSS sg13g2_decap_8
XFILLER_157_2641 VDD VSS sg13g2_decap_4
XFILLER_290_2122 VDD VSS sg13g2_decap_8
XFILLER_334_252 VDD VSS sg13g2_decap_8
XFILLER_333_2417 VDD VSS sg13g2_decap_8
XFILLER_66_2535 VDD VSS sg13g2_decap_8
XFILLER_31_1793 VDD VSS sg13g2_decap_8
XFILLER_323_959 VDD VSS sg13g2_decap_8
XFILLER_138_2073 VDD VSS sg13g2_decap_8
XFILLER_255_2297 VDD VSS sg13g2_decap_8
XFILLER_216_2248 VDD VSS sg13g2_decap_8
XFILLER_192_1842 VDD VSS sg13g2_decap_8
XFILLER_192_2598 VDD VSS sg13g2_decap_8
XFILLER_333_1738 VDD VSS sg13g2_decap_8
XFILLER_322_469 VDD VSS sg13g2_decap_8
XFILLER_27_1807 VDD VSS sg13g2_decap_8
XFILLER_66_1856 VDD VSS sg13g2_decap_8
XFILLER_290_2199 VDD VSS sg13g2_decap_8
XFILLER_245_63 VDD VSS sg13g2_decap_8
XFILLER_60_2101 VDD VSS sg13g2_decap_8
XFILLER_62_1709 VDD VSS sg13g2_decap_8
XFILLER_58_28 VDD VSS sg13g2_decap_8
XFILLER_331_2163 VDD VSS sg13g2_decap_8
XFILLER_116_2360 VDD VSS sg13g2_decap_8
XFILLER_118_1968 VDD VSS sg13g2_decap_8
XFILLER_233_2584 VDD VSS sg13g2_decap_8
XFILLER_99_2311 VDD VSS sg13g2_decap_8
XFILLER_9_1750 VDD VSS sg13g2_decap_8
XFILLER_112_2213 VDD VSS sg13g2_decap_8
XFILLER_25_2276 VDD VSS sg13g2_decap_8
XFILLER_5_1603 VDD VSS sg13g2_decap_8
XFILLER_5_2359 VDD VSS sg13g2_decap_8
XFILLER_331_1484 VDD VSS sg13g2_decap_8
XFILLER_21_2129 VDD VSS sg13g2_decap_8
XFILLER_60_2178 VDD VSS sg13g2_decap_8
XFILLER_288_2073 VDD VSS sg13g2_decap_8
XFILLER_249_2024 VDD VSS sg13g2_decap_8
XFILLER_116_1681 VDD VSS sg13g2_decap_8
XFILLER_99_1632 VDD VSS sg13g2_decap_8
XFILLER_114_56 VDD VSS sg13g2_decap_8
XFILLER_99_2388 VDD VSS sg13g2_decap_8
XFILLER_261_84 VDD VSS sg13g2_decap_8
XFILLER_3_2072 VDD VSS sg13g2_decap_8
XFILLER_309_2633 VDD VSS sg13g2_decap_8
XFILLER_309_2644 VDD VSS sg13g2_fill_1
XFILLER_266_2360 VDD VSS sg13g2_decap_8
XFILLER_227_2311 VDD VSS sg13g2_decap_8
XFILLER_268_1968 VDD VSS sg13g2_decap_8
XFILLER_229_1919 VDD VSS sg13g2_decap_8
XFILLER_215_112 VDD VSS sg13g2_decap_8
XFILLER_74_49 VDD VSS sg13g2_decap_8
XFILLER_215_123 VDD VSS sg13g2_fill_1
XFILLER_262_2213 VDD VSS sg13g2_decap_8
XFILLER_186_1646 VDD VSS sg13g2_decap_8
XFILLER_261_7 VDD VSS sg13g2_decap_8
XFILLER_38_2626 VDD VSS sg13g2_decap_8
XFILLER_19_2003 VDD VSS sg13g2_decap_8
XFILLER_58_2052 VDD VSS sg13g2_decap_8
XFILLER_164_2634 VDD VSS sg13g2_decap_8
XFILLER_73_2528 VDD VSS sg13g2_decap_8
XFILLER_3_1393 VDD VSS sg13g2_decap_8
XFILLER_309_1954 VDD VSS sg13g2_decap_8
XFILLER_266_1681 VDD VSS sg13g2_decap_8
XFILLER_227_1632 VDD VSS sg13g2_decap_8
XFILLER_305_1807 VDD VSS sg13g2_decap_8
XFILLER_227_2388 VDD VSS sg13g2_decap_8
XFILLER_325_1244 VDD VSS sg13g2_decap_8
XFILLER_240_2500 VDD VSS sg13g2_decap_8
XFILLER_38_1947 VDD VSS sg13g2_decap_8
XFILLER_77_1996 VDD VSS sg13g2_decap_8
XFILLER_106_2017 VDD VSS sg13g2_decap_8
XFILLER_145_2066 VDD VSS sg13g2_decap_8
XFILLER_130_77 VDD VSS sg13g2_decap_8
XFILLER_73_1849 VDD VSS sg13g2_decap_8
XFILLER_71_2241 VDD VSS sg13g2_decap_8
XFILLER_12_924 VDD VSS sg13g2_decap_8
XFILLER_303_2276 VDD VSS sg13g2_decap_8
XFILLER_123_2353 VDD VSS sg13g2_decap_8
XFILLER_240_1821 VDD VSS sg13g2_decap_8
XFILLER_11_434 VDD VSS sg13g2_decap_8
XFILLER_36_1660 VDD VSS sg13g2_decap_8
XFILLER_240_2577 VDD VSS sg13g2_decap_8
XFILLER_201_2528 VDD VSS sg13g2_decap_8
XFILLER_23_42 VDD VSS sg13g2_decap_8
XFILLER_8_917 VDD VSS sg13g2_decap_8
XFILLER_128_119 VDD VSS sg13g2_decap_4