*SPEF "ieee 1481-1999"
*DESIGN "counter_top"
*DATE "12:38:22 Friday May 08, 2026"
*VENDOR "The OpenROAD Project"
*PROGRAM "OpenROAD"
*VERSION "26Q1-1024-gdcf36133a"
*DESIGN_FLOW "NAME_SCOPE LOCAL" "PIN_CAP NONE"
*DIVIDER /
*DELIMITER :
*BUS_DELIMITER []
*T_UNIT 1 NS
*C_UNIT 1 PF
*R_UNIT 1 OHM
*L_UNIT 1 HENRY

*NAME_MAP
*3 clock_i
*4 counter_value_o[0]
*5 counter_value_o[1]
*6 counter_value_o[2]
*7 counter_value_o[3]
*8 counter_value_o[4]
*9 counter_value_o[5]
*10 counter_value_o[6]
*11 counter_value_o[7]
*12 enable_i
*13 reset_n_i
*14 _00_
*15 _01_
*16 _02_
*17 _03_
*18 _04_
*19 _05_
*20 _06_
*21 _07_
*22 _08_
*23 _09_
*24 _10_
*25 _11_
*26 _12_
*27 _13_
*28 _14_
*29 _15_
*30 _16_
*31 _17_
*32 _18_
*33 _19_
*34 _20_
*35 _21_
*36 _22_
*37 _23_
*38 _24_
*39 _25_
*40 _26_
*41 _27_
*42 _28_
*43 _29_
*44 clknet_0_clock_i
*45 clknet_1_0__leaf_clock_i
*46 clknet_1_1__leaf_clock_i
*47 net
*48 net1
*49 net10
*50 net11
*51 net12
*52 net13
*53 net14
*54 net15
*55 net16
*56 net17
*57 net18
*58 net19
*59 net2
*60 net20
*61 net21
*62 net22
*63 net23
*64 net24
*65 net25
*66 net26
*67 net27
*68 net28
*69 net29
*70 net3
*71 net30
*72 net31
*73 net32
*74 net33
*75 net4
*76 net5
*77 net6
*78 net7
*79 net8
*80 net9
*81 FILLER_0_0
*82 FILLER_0_105
*83 FILLER_0_112
*84 FILLER_0_119
*85 FILLER_0_126
*86 FILLER_0_133
*87 FILLER_0_14
*88 FILLER_0_140
*89 FILLER_0_147
*90 FILLER_0_154
*91 FILLER_0_161
*92 FILLER_0_168
*93 FILLER_0_175
*94 FILLER_0_182
*95 FILLER_0_189
*96 FILLER_0_196
*97 FILLER_0_203
*98 FILLER_0_21
*99 FILLER_0_210
*100 FILLER_0_217
*101 FILLER_0_224
*102 FILLER_0_231
*103 FILLER_0_238
*104 FILLER_0_245
*105 FILLER_0_252
*106 FILLER_0_259
*107 FILLER_0_266
*108 FILLER_0_273
*109 FILLER_0_28
*110 FILLER_0_280
*111 FILLER_0_287
*112 FILLER_0_294
*113 FILLER_0_301
*114 FILLER_0_308
*115 FILLER_0_315
*116 FILLER_0_322
*117 FILLER_0_329
*118 FILLER_0_336
*119 FILLER_0_343
*120 FILLER_0_35
*121 FILLER_0_350
*122 FILLER_0_357
*123 FILLER_0_364
*124 FILLER_0_371
*125 FILLER_0_378
*126 FILLER_0_385
*127 FILLER_0_387
*128 FILLER_0_42
*129 FILLER_0_49
*130 FILLER_0_56
*131 FILLER_0_63
*132 FILLER_0_7
*133 FILLER_0_70
*134 FILLER_0_77
*135 FILLER_0_84
*136 FILLER_0_91
*137 FILLER_0_98
*138 FILLER_10_0
*139 FILLER_10_105
*140 FILLER_10_112
*141 FILLER_10_119
*142 FILLER_10_126
*143 FILLER_10_133
*144 FILLER_10_14
*145 FILLER_10_140
*146 FILLER_10_147
*147 FILLER_10_154
*148 FILLER_10_161
*149 FILLER_10_168
*150 FILLER_10_175
*151 FILLER_10_182
*152 FILLER_10_189
*153 FILLER_10_196
*154 FILLER_10_203
*155 FILLER_10_21
*156 FILLER_10_210
*157 FILLER_10_217
*158 FILLER_10_224
*159 FILLER_10_231
*160 FILLER_10_238
*161 FILLER_10_245
*162 FILLER_10_252
*163 FILLER_10_259
*164 FILLER_10_266
*165 FILLER_10_273
*166 FILLER_10_28
*167 FILLER_10_280
*168 FILLER_10_287
*169 FILLER_10_294
*170 FILLER_10_301
*171 FILLER_10_308
*172 FILLER_10_315
*173 FILLER_10_322
*174 FILLER_10_329
*175 FILLER_10_336
*176 FILLER_10_343
*177 FILLER_10_35
*178 FILLER_10_350
*179 FILLER_10_357
*180 FILLER_10_364
*181 FILLER_10_371
*182 FILLER_10_378
*183 FILLER_10_385
*184 FILLER_10_42
*185 FILLER_10_49
*186 FILLER_10_56
*187 FILLER_10_63
*188 FILLER_10_7
*189 FILLER_10_70
*190 FILLER_10_77
*191 FILLER_10_84
*192 FILLER_10_91
*193 FILLER_10_98
*194 FILLER_11_0
*195 FILLER_11_105
*196 FILLER_11_112
*197 FILLER_11_119
*198 FILLER_11_126
*199 FILLER_11_133
*200 FILLER_11_14
*201 FILLER_11_140
*202 FILLER_11_147
*203 FILLER_11_154
*204 FILLER_11_161
*205 FILLER_11_168
*206 FILLER_11_175
*207 FILLER_11_182
*208 FILLER_11_189
*209 FILLER_11_196
*210 FILLER_11_203
*211 FILLER_11_21
*212 FILLER_11_210
*213 FILLER_11_217
*214 FILLER_11_224
*215 FILLER_11_231
*216 FILLER_11_238
*217 FILLER_11_245
*218 FILLER_11_252
*219 FILLER_11_259
*220 FILLER_11_266
*221 FILLER_11_273
*222 FILLER_11_28
*223 FILLER_11_280
*224 FILLER_11_287
*225 FILLER_11_294
*226 FILLER_11_301
*227 FILLER_11_308
*228 FILLER_11_315
*229 FILLER_11_322
*230 FILLER_11_329
*231 FILLER_11_336
*232 FILLER_11_343
*233 FILLER_11_35
*234 FILLER_11_350
*235 FILLER_11_357
*236 FILLER_11_367
*237 FILLER_11_378
*238 FILLER_11_385
*239 FILLER_11_42
*240 FILLER_11_49
*241 FILLER_11_56
*242 FILLER_11_63
*243 FILLER_11_7
*244 FILLER_11_70
*245 FILLER_11_77
*246 FILLER_11_84
*247 FILLER_11_91
*248 FILLER_11_98
*249 FILLER_12_0
*250 FILLER_12_105
*251 FILLER_12_112
*252 FILLER_12_119
*253 FILLER_12_126
*254 FILLER_12_133
*255 FILLER_12_14
*256 FILLER_12_140
*257 FILLER_12_147
*258 FILLER_12_154
*259 FILLER_12_161
*260 FILLER_12_168
*261 FILLER_12_175
*262 FILLER_12_182
*263 FILLER_12_189
*264 FILLER_12_196
*265 FILLER_12_203
*266 FILLER_12_21
*267 FILLER_12_210
*268 FILLER_12_217
*269 FILLER_12_224
*270 FILLER_12_231
*271 FILLER_12_238
*272 FILLER_12_245
*273 FILLER_12_252
*274 FILLER_12_259
*275 FILLER_12_266
*276 FILLER_12_273
*277 FILLER_12_28
*278 FILLER_12_280
*279 FILLER_12_287
*280 FILLER_12_294
*281 FILLER_12_301
*282 FILLER_12_308
*283 FILLER_12_315
*284 FILLER_12_322
*285 FILLER_12_329
*286 FILLER_12_336
*287 FILLER_12_343
*288 FILLER_12_35
*289 FILLER_12_385
*290 FILLER_12_42
*291 FILLER_12_49
*292 FILLER_12_56
*293 FILLER_12_63
*294 FILLER_12_7
*295 FILLER_12_70
*296 FILLER_12_77
*297 FILLER_12_84
*298 FILLER_12_91
*299 FILLER_12_98
*300 FILLER_13_0
*301 FILLER_13_105
*302 FILLER_13_112
*303 FILLER_13_119
*304 FILLER_13_126
*305 FILLER_13_133
*306 FILLER_13_14
*307 FILLER_13_140
*308 FILLER_13_147
*309 FILLER_13_154
*310 FILLER_13_161
*311 FILLER_13_168
*312 FILLER_13_175
*313 FILLER_13_182
*314 FILLER_13_189
*315 FILLER_13_196
*316 FILLER_13_203
*317 FILLER_13_21
*318 FILLER_13_210
*319 FILLER_13_217
*320 FILLER_13_224
*321 FILLER_13_231
*322 FILLER_13_238
*323 FILLER_13_245
*324 FILLER_13_252
*325 FILLER_13_259
*326 FILLER_13_266
*327 FILLER_13_273
*328 FILLER_13_28
*329 FILLER_13_280
*330 FILLER_13_287
*331 FILLER_13_294
*332 FILLER_13_301
*333 FILLER_13_308
*334 FILLER_13_315
*335 FILLER_13_322
*336 FILLER_13_329
*337 FILLER_13_336
*338 FILLER_13_343
*339 FILLER_13_35
*340 FILLER_13_350
*341 FILLER_13_352
*342 FILLER_13_386
*343 FILLER_13_42
*344 FILLER_13_49
*345 FILLER_13_56
*346 FILLER_13_63
*347 FILLER_13_7
*348 FILLER_13_70
*349 FILLER_13_77
*350 FILLER_13_84
*351 FILLER_13_91
*352 FILLER_13_98
*353 FILLER_14_0
*354 FILLER_14_105
*355 FILLER_14_112
*356 FILLER_14_119
*357 FILLER_14_126
*358 FILLER_14_133
*359 FILLER_14_14
*360 FILLER_14_140
*361 FILLER_14_147
*362 FILLER_14_154
*363 FILLER_14_161
*364 FILLER_14_168
*365 FILLER_14_175
*366 FILLER_14_182
*367 FILLER_14_189
*368 FILLER_14_196
*369 FILLER_14_203
*370 FILLER_14_21
*371 FILLER_14_210
*372 FILLER_14_217
*373 FILLER_14_224
*374 FILLER_14_231
*375 FILLER_14_238
*376 FILLER_14_245
*377 FILLER_14_252
*378 FILLER_14_259
*379 FILLER_14_266
*380 FILLER_14_273
*381 FILLER_14_28
*382 FILLER_14_280
*383 FILLER_14_287
*384 FILLER_14_294
*385 FILLER_14_301
*386 FILLER_14_308
*387 FILLER_14_315
*388 FILLER_14_322
*389 FILLER_14_329
*390 FILLER_14_336
*391 FILLER_14_343
*392 FILLER_14_35
*393 FILLER_14_376
*394 FILLER_14_386
*395 FILLER_14_390
*396 FILLER_14_42
*397 FILLER_14_49
*398 FILLER_14_56
*399 FILLER_14_63
*400 FILLER_14_7
*401 FILLER_14_70
*402 FILLER_14_77
*403 FILLER_14_84
*404 FILLER_14_91
*405 FILLER_14_98
*406 FILLER_15_0
*407 FILLER_15_105
*408 FILLER_15_112
*409 FILLER_15_119
*410 FILLER_15_126
*411 FILLER_15_133
*412 FILLER_15_14
*413 FILLER_15_140
*414 FILLER_15_147
*415 FILLER_15_154
*416 FILLER_15_161
*417 FILLER_15_168
*418 FILLER_15_175
*419 FILLER_15_182
*420 FILLER_15_189
*421 FILLER_15_196
*422 FILLER_15_203
*423 FILLER_15_21
*424 FILLER_15_210
*425 FILLER_15_217
*426 FILLER_15_224
*427 FILLER_15_231
*428 FILLER_15_238
*429 FILLER_15_245
*430 FILLER_15_252
*431 FILLER_15_259
*432 FILLER_15_266
*433 FILLER_15_273
*434 FILLER_15_28
*435 FILLER_15_280
*436 FILLER_15_287
*437 FILLER_15_294
*438 FILLER_15_301
*439 FILLER_15_308
*440 FILLER_15_315
*441 FILLER_15_322
*442 FILLER_15_329
*443 FILLER_15_336
*444 FILLER_15_343
*445 FILLER_15_35
*446 FILLER_15_350
*447 FILLER_15_354
*448 FILLER_15_367
*449 FILLER_15_378
*450 FILLER_15_385
*451 FILLER_15_42
*452 FILLER_15_49
*453 FILLER_15_56
*454 FILLER_15_63
*455 FILLER_15_7
*456 FILLER_15_70
*457 FILLER_15_77
*458 FILLER_15_84
*459 FILLER_15_91
*460 FILLER_15_98
*461 FILLER_16_0
*462 FILLER_16_105
*463 FILLER_16_112
*464 FILLER_16_119
*465 FILLER_16_126
*466 FILLER_16_133
*467 FILLER_16_14
*468 FILLER_16_140
*469 FILLER_16_147
*470 FILLER_16_154
*471 FILLER_16_161
*472 FILLER_16_168
*473 FILLER_16_175
*474 FILLER_16_182
*475 FILLER_16_189
*476 FILLER_16_196
*477 FILLER_16_203
*478 FILLER_16_21
*479 FILLER_16_210
*480 FILLER_16_217
*481 FILLER_16_224
*482 FILLER_16_231
*483 FILLER_16_238
*484 FILLER_16_245
*485 FILLER_16_252
*486 FILLER_16_259
*487 FILLER_16_266
*488 FILLER_16_273
*489 FILLER_16_28
*490 FILLER_16_280
*491 FILLER_16_287
*492 FILLER_16_294
*493 FILLER_16_301
*494 FILLER_16_308
*495 FILLER_16_315
*496 FILLER_16_322
*497 FILLER_16_329
*498 FILLER_16_336
*499 FILLER_16_343
*500 FILLER_16_35
*501 FILLER_16_350
*502 FILLER_16_357
*503 FILLER_16_42
*504 FILLER_16_49
*505 FILLER_16_56
*506 FILLER_16_63
*507 FILLER_16_7
*508 FILLER_16_70
*509 FILLER_16_77
*510 FILLER_16_84
*511 FILLER_16_91
*512 FILLER_16_98
*513 FILLER_17_0
*514 FILLER_17_105
*515 FILLER_17_112
*516 FILLER_17_119
*517 FILLER_17_126
*518 FILLER_17_133
*519 FILLER_17_14
*520 FILLER_17_140
*521 FILLER_17_147
*522 FILLER_17_154
*523 FILLER_17_161
*524 FILLER_17_168
*525 FILLER_17_175
*526 FILLER_17_182
*527 FILLER_17_189
*528 FILLER_17_196
*529 FILLER_17_203
*530 FILLER_17_21
*531 FILLER_17_210
*532 FILLER_17_217
*533 FILLER_17_224
*534 FILLER_17_231
*535 FILLER_17_238
*536 FILLER_17_245
*537 FILLER_17_252
*538 FILLER_17_259
*539 FILLER_17_266
*540 FILLER_17_273
*541 FILLER_17_28
*542 FILLER_17_280
*543 FILLER_17_287
*544 FILLER_17_294
*545 FILLER_17_301
*546 FILLER_17_308
*547 FILLER_17_315
*548 FILLER_17_322
*549 FILLER_17_329
*550 FILLER_17_336
*551 FILLER_17_343
*552 FILLER_17_347
*553 FILLER_17_35
*554 FILLER_17_389
*555 FILLER_17_391
*556 FILLER_17_42
*557 FILLER_17_49
*558 FILLER_17_56
*559 FILLER_17_63
*560 FILLER_17_7
*561 FILLER_17_70
*562 FILLER_17_77
*563 FILLER_17_84
*564 FILLER_17_91
*565 FILLER_17_98
*566 FILLER_18_0
*567 FILLER_18_105
*568 FILLER_18_112
*569 FILLER_18_119
*570 FILLER_18_126
*571 FILLER_18_133
*572 FILLER_18_14
*573 FILLER_18_140
*574 FILLER_18_147
*575 FILLER_18_154
*576 FILLER_18_161
*577 FILLER_18_168
*578 FILLER_18_175
*579 FILLER_18_182
*580 FILLER_18_189
*581 FILLER_18_196
*582 FILLER_18_203
*583 FILLER_18_21
*584 FILLER_18_210
*585 FILLER_18_217
*586 FILLER_18_224
*587 FILLER_18_231
*588 FILLER_18_238
*589 FILLER_18_245
*590 FILLER_18_252
*591 FILLER_18_259
*592 FILLER_18_266
*593 FILLER_18_273
*594 FILLER_18_28
*595 FILLER_18_280
*596 FILLER_18_287
*597 FILLER_18_294
*598 FILLER_18_301
*599 FILLER_18_308
*600 FILLER_18_315
*601 FILLER_18_322
*602 FILLER_18_329
*603 FILLER_18_336
*604 FILLER_18_343
*605 FILLER_18_347
*606 FILLER_18_35
*607 FILLER_18_389
*608 FILLER_18_391
*609 FILLER_18_42
*610 FILLER_18_49
*611 FILLER_18_56
*612 FILLER_18_63
*613 FILLER_18_7
*614 FILLER_18_70
*615 FILLER_18_77
*616 FILLER_18_84
*617 FILLER_18_91
*618 FILLER_18_98
*619 FILLER_19_0
*620 FILLER_19_105
*621 FILLER_19_112
*622 FILLER_19_119
*623 FILLER_19_126
*624 FILLER_19_133
*625 FILLER_19_14
*626 FILLER_19_140
*627 FILLER_19_147
*628 FILLER_19_154
*629 FILLER_19_161
*630 FILLER_19_168
*631 FILLER_19_175
*632 FILLER_19_182
*633 FILLER_19_189
*634 FILLER_19_196
*635 FILLER_19_203
*636 FILLER_19_21
*637 FILLER_19_210
*638 FILLER_19_217
*639 FILLER_19_224
*640 FILLER_19_231
*641 FILLER_19_238
*642 FILLER_19_245
*643 FILLER_19_252
*644 FILLER_19_259
*645 FILLER_19_266
*646 FILLER_19_273
*647 FILLER_19_28
*648 FILLER_19_280
*649 FILLER_19_287
*650 FILLER_19_294
*651 FILLER_19_301
*652 FILLER_19_308
*653 FILLER_19_315
*654 FILLER_19_322
*655 FILLER_19_329
*656 FILLER_19_336
*657 FILLER_19_343
*658 FILLER_19_35
*659 FILLER_19_350
*660 FILLER_19_354
*661 FILLER_19_368
*662 FILLER_19_370
*663 FILLER_19_380
*664 FILLER_19_387
*665 FILLER_19_42
*666 FILLER_19_49
*667 FILLER_19_56
*668 FILLER_19_63
*669 FILLER_19_7
*670 FILLER_19_70
*671 FILLER_19_77
*672 FILLER_19_84
*673 FILLER_19_91
*674 FILLER_19_98
*675 FILLER_1_0
*676 FILLER_1_105
*677 FILLER_1_112
*678 FILLER_1_119
*679 FILLER_1_126
*680 FILLER_1_133
*681 FILLER_1_14
*682 FILLER_1_140
*683 FILLER_1_147
*684 FILLER_1_154
*685 FILLER_1_161
*686 FILLER_1_168
*687 FILLER_1_175
*688 FILLER_1_182
*689 FILLER_1_189
*690 FILLER_1_196
*691 FILLER_1_203
*692 FILLER_1_21
*693 FILLER_1_210
*694 FILLER_1_217
*695 FILLER_1_224
*696 FILLER_1_231
*697 FILLER_1_238
*698 FILLER_1_245
*699 FILLER_1_252
*700 FILLER_1_259
*701 FILLER_1_266
*702 FILLER_1_273
*703 FILLER_1_28
*704 FILLER_1_280
*705 FILLER_1_287
*706 FILLER_1_294
*707 FILLER_1_301
*708 FILLER_1_308
*709 FILLER_1_315
*710 FILLER_1_322
*711 FILLER_1_329
*712 FILLER_1_336
*713 FILLER_1_343
*714 FILLER_1_35
*715 FILLER_1_350
*716 FILLER_1_357
*717 FILLER_1_364
*718 FILLER_1_371
*719 FILLER_1_378
*720 FILLER_1_385
*721 FILLER_1_42
*722 FILLER_1_49
*723 FILLER_1_56
*724 FILLER_1_63
*725 FILLER_1_7
*726 FILLER_1_70
*727 FILLER_1_77
*728 FILLER_1_84
*729 FILLER_1_91
*730 FILLER_1_98
*731 FILLER_20_0
*732 FILLER_20_105
*733 FILLER_20_112
*734 FILLER_20_119
*735 FILLER_20_126
*736 FILLER_20_133
*737 FILLER_20_14
*738 FILLER_20_140
*739 FILLER_20_147
*740 FILLER_20_154
*741 FILLER_20_161
*742 FILLER_20_168
*743 FILLER_20_175
*744 FILLER_20_182
*745 FILLER_20_189
*746 FILLER_20_196
*747 FILLER_20_203
*748 FILLER_20_21
*749 FILLER_20_210
*750 FILLER_20_217
*751 FILLER_20_224
*752 FILLER_20_231
*753 FILLER_20_238
*754 FILLER_20_245
*755 FILLER_20_252
*756 FILLER_20_259
*757 FILLER_20_266
*758 FILLER_20_273
*759 FILLER_20_28
*760 FILLER_20_280
*761 FILLER_20_287
*762 FILLER_20_294
*763 FILLER_20_301
*764 FILLER_20_308
*765 FILLER_20_315
*766 FILLER_20_322
*767 FILLER_20_329
*768 FILLER_20_336
*769 FILLER_20_343
*770 FILLER_20_35
*771 FILLER_20_350
*772 FILLER_20_357
*773 FILLER_20_364
*774 FILLER_20_374
*775 FILLER_20_381
*776 FILLER_20_388
*777 FILLER_20_42
*778 FILLER_20_49
*779 FILLER_20_56
*780 FILLER_20_63
*781 FILLER_20_7
*782 FILLER_20_70
*783 FILLER_20_77
*784 FILLER_20_84
*785 FILLER_20_91
*786 FILLER_20_98
*787 FILLER_21_0
*788 FILLER_21_105
*789 FILLER_21_112
*790 FILLER_21_119
*791 FILLER_21_126
*792 FILLER_21_133
*793 FILLER_21_14
*794 FILLER_21_140
*795 FILLER_21_147
*796 FILLER_21_154
*797 FILLER_21_161
*798 FILLER_21_168
*799 FILLER_21_175
*800 FILLER_21_182
*801 FILLER_21_189
*802 FILLER_21_196
*803 FILLER_21_203
*804 FILLER_21_21
*805 FILLER_21_210
*806 FILLER_21_217
*807 FILLER_21_224
*808 FILLER_21_231
*809 FILLER_21_238
*810 FILLER_21_245
*811 FILLER_21_252
*812 FILLER_21_259
*813 FILLER_21_266
*814 FILLER_21_273
*815 FILLER_21_28
*816 FILLER_21_280
*817 FILLER_21_287
*818 FILLER_21_294
*819 FILLER_21_301
*820 FILLER_21_308
*821 FILLER_21_315
*822 FILLER_21_322
*823 FILLER_21_329
*824 FILLER_21_336
*825 FILLER_21_343
*826 FILLER_21_35
*827 FILLER_21_350
*828 FILLER_21_354
*829 FILLER_21_366
*830 FILLER_21_42
*831 FILLER_21_49
*832 FILLER_21_56
*833 FILLER_21_63
*834 FILLER_21_7
*835 FILLER_21_70
*836 FILLER_21_77
*837 FILLER_21_84
*838 FILLER_21_91
*839 FILLER_21_98
*840 FILLER_22_102
*841 FILLER_22_109
*842 FILLER_22_11
*843 FILLER_22_116
*844 FILLER_22_123
*845 FILLER_22_130
*846 FILLER_22_137
*847 FILLER_22_144
*848 FILLER_22_151
*849 FILLER_22_158
*850 FILLER_22_165
*851 FILLER_22_172
*852 FILLER_22_179
*853 FILLER_22_18
*854 FILLER_22_186
*855 FILLER_22_193
*856 FILLER_22_200
*857 FILLER_22_207
*858 FILLER_22_214
*859 FILLER_22_221
*860 FILLER_22_228
*861 FILLER_22_235
*862 FILLER_22_242
*863 FILLER_22_249
*864 FILLER_22_25
*865 FILLER_22_256
*866 FILLER_22_263
*867 FILLER_22_270
*868 FILLER_22_277
*869 FILLER_22_284
*870 FILLER_22_291
*871 FILLER_22_298
*872 FILLER_22_305
*873 FILLER_22_312
*874 FILLER_22_319
*875 FILLER_22_32
*876 FILLER_22_326
*877 FILLER_22_333
*878 FILLER_22_340
*879 FILLER_22_347
*880 FILLER_22_349
*881 FILLER_22_387
*882 FILLER_22_39
*883 FILLER_22_391
*884 FILLER_22_4
*885 FILLER_22_46
*886 FILLER_22_53
*887 FILLER_22_60
*888 FILLER_22_67
*889 FILLER_22_74
*890 FILLER_22_81
*891 FILLER_22_88
*892 FILLER_22_95
*893 FILLER_23_0
*894 FILLER_23_105
*895 FILLER_23_112
*896 FILLER_23_119
*897 FILLER_23_126
*898 FILLER_23_133
*899 FILLER_23_14
*900 FILLER_23_140
*901 FILLER_23_147
*902 FILLER_23_154
*903 FILLER_23_161
*904 FILLER_23_168
*905 FILLER_23_175
*906 FILLER_23_182
*907 FILLER_23_189
*908 FILLER_23_196
*909 FILLER_23_203
*910 FILLER_23_21
*911 FILLER_23_210
*912 FILLER_23_217
*913 FILLER_23_224
*914 FILLER_23_231
*915 FILLER_23_238
*916 FILLER_23_245
*917 FILLER_23_252
*918 FILLER_23_259
*919 FILLER_23_266
*920 FILLER_23_273
*921 FILLER_23_28
*922 FILLER_23_280
*923 FILLER_23_287
*924 FILLER_23_294
*925 FILLER_23_301
*926 FILLER_23_308
*927 FILLER_23_315
*928 FILLER_23_322
*929 FILLER_23_329
*930 FILLER_23_336
*931 FILLER_23_343
*932 FILLER_23_345
*933 FILLER_23_35
*934 FILLER_23_389
*935 FILLER_23_391
*936 FILLER_23_42
*937 FILLER_23_49
*938 FILLER_23_56
*939 FILLER_23_63
*940 FILLER_23_7
*941 FILLER_23_70
*942 FILLER_23_77
*943 FILLER_23_84
*944 FILLER_23_91
*945 FILLER_23_98
*946 FILLER_24_0
*947 FILLER_24_105
*948 FILLER_24_112
*949 FILLER_24_119
*950 FILLER_24_126
*951 FILLER_24_133
*952 FILLER_24_14
*953 FILLER_24_140
*954 FILLER_24_147
*955 FILLER_24_154
*956 FILLER_24_161
*957 FILLER_24_168
*958 FILLER_24_175
*959 FILLER_24_182
*960 FILLER_24_189
*961 FILLER_24_196
*962 FILLER_24_203
*963 FILLER_24_21
*964 FILLER_24_210
*965 FILLER_24_217
*966 FILLER_24_224
*967 FILLER_24_231
*968 FILLER_24_238
*969 FILLER_24_245
*970 FILLER_24_252
*971 FILLER_24_259
*972 FILLER_24_266
*973 FILLER_24_273
*974 FILLER_24_28
*975 FILLER_24_280
*976 FILLER_24_287
*977 FILLER_24_294
*978 FILLER_24_301
*979 FILLER_24_308
*980 FILLER_24_315
*981 FILLER_24_322
*982 FILLER_24_329
*983 FILLER_24_336
*984 FILLER_24_343
*985 FILLER_24_347
*986 FILLER_24_35
*987 FILLER_24_387
*988 FILLER_24_391
*989 FILLER_24_42
*990 FILLER_24_49
*991 FILLER_24_56
*992 FILLER_24_63
*993 FILLER_24_7
*994 FILLER_24_70
*995 FILLER_24_77
*996 FILLER_24_84
*997 FILLER_24_91
*998 FILLER_24_98
*999 FILLER_25_0
*1000 FILLER_25_105
*1001 FILLER_25_112
*1002 FILLER_25_119
*1003 FILLER_25_126
*1004 FILLER_25_133
*1005 FILLER_25_14
*1006 FILLER_25_140
*1007 FILLER_25_147
*1008 FILLER_25_154
*1009 FILLER_25_161
*1010 FILLER_25_168
*1011 FILLER_25_175
*1012 FILLER_25_182
*1013 FILLER_25_189
*1014 FILLER_25_196
*1015 FILLER_25_203
*1016 FILLER_25_21
*1017 FILLER_25_210
*1018 FILLER_25_217
*1019 FILLER_25_224
*1020 FILLER_25_231
*1021 FILLER_25_238
*1022 FILLER_25_245
*1023 FILLER_25_252
*1024 FILLER_25_259
*1025 FILLER_25_266
*1026 FILLER_25_273
*1027 FILLER_25_28
*1028 FILLER_25_280
*1029 FILLER_25_287
*1030 FILLER_25_294
*1031 FILLER_25_301
*1032 FILLER_25_308
*1033 FILLER_25_315
*1034 FILLER_25_322
*1035 FILLER_25_329
*1036 FILLER_25_336
*1037 FILLER_25_343
*1038 FILLER_25_35
*1039 FILLER_25_350
*1040 FILLER_25_357
*1041 FILLER_25_359
*1042 FILLER_25_387
*1043 FILLER_25_42
*1044 FILLER_25_49
*1045 FILLER_25_56
*1046 FILLER_25_63
*1047 FILLER_25_7
*1048 FILLER_25_70
*1049 FILLER_25_77
*1050 FILLER_25_84
*1051 FILLER_25_91
*1052 FILLER_25_98
*1053 FILLER_26_0
*1054 FILLER_26_105
*1055 FILLER_26_112
*1056 FILLER_26_119
*1057 FILLER_26_126
*1058 FILLER_26_133
*1059 FILLER_26_14
*1060 FILLER_26_140
*1061 FILLER_26_147
*1062 FILLER_26_154
*1063 FILLER_26_161
*1064 FILLER_26_168
*1065 FILLER_26_175
*1066 FILLER_26_182
*1067 FILLER_26_189
*1068 FILLER_26_196
*1069 FILLER_26_203
*1070 FILLER_26_21
*1071 FILLER_26_210
*1072 FILLER_26_217
*1073 FILLER_26_224
*1074 FILLER_26_231
*1075 FILLER_26_238
*1076 FILLER_26_245
*1077 FILLER_26_252
*1078 FILLER_26_259
*1079 FILLER_26_266
*1080 FILLER_26_273
*1081 FILLER_26_28
*1082 FILLER_26_280
*1083 FILLER_26_287
*1084 FILLER_26_294
*1085 FILLER_26_301
*1086 FILLER_26_308
*1087 FILLER_26_315
*1088 FILLER_26_322
*1089 FILLER_26_329
*1090 FILLER_26_336
*1091 FILLER_26_343
*1092 FILLER_26_347
*1093 FILLER_26_35
*1094 FILLER_26_354
*1095 FILLER_26_361
*1096 FILLER_26_42
*1097 FILLER_26_49
*1098 FILLER_26_56
*1099 FILLER_26_63
*1100 FILLER_26_7
*1101 FILLER_26_70
*1102 FILLER_26_77
*1103 FILLER_26_84
*1104 FILLER_26_91
*1105 FILLER_26_98
*1106 FILLER_27_0
*1107 FILLER_27_105
*1108 FILLER_27_112
*1109 FILLER_27_119
*1110 FILLER_27_126
*1111 FILLER_27_133
*1112 FILLER_27_14
*1113 FILLER_27_140
*1114 FILLER_27_147
*1115 FILLER_27_154
*1116 FILLER_27_161
*1117 FILLER_27_168
*1118 FILLER_27_175
*1119 FILLER_27_182
*1120 FILLER_27_189
*1121 FILLER_27_196
*1122 FILLER_27_203
*1123 FILLER_27_21
*1124 FILLER_27_210
*1125 FILLER_27_217
*1126 FILLER_27_224
*1127 FILLER_27_231
*1128 FILLER_27_238
*1129 FILLER_27_245
*1130 FILLER_27_252
*1131 FILLER_27_259
*1132 FILLER_27_266
*1133 FILLER_27_273
*1134 FILLER_27_28
*1135 FILLER_27_280
*1136 FILLER_27_287
*1137 FILLER_27_294
*1138 FILLER_27_301
*1139 FILLER_27_308
*1140 FILLER_27_315
*1141 FILLER_27_322
*1142 FILLER_27_329
*1143 FILLER_27_336
*1144 FILLER_27_343
*1145 FILLER_27_347
*1146 FILLER_27_35
*1147 FILLER_27_353
*1148 FILLER_27_372
*1149 FILLER_27_382
*1150 FILLER_27_389
*1151 FILLER_27_391
*1152 FILLER_27_42
*1153 FILLER_27_49
*1154 FILLER_27_56
*1155 FILLER_27_63
*1156 FILLER_27_7
*1157 FILLER_27_70
*1158 FILLER_27_77
*1159 FILLER_27_84
*1160 FILLER_27_91
*1161 FILLER_27_98
*1162 FILLER_28_0
*1163 FILLER_28_105
*1164 FILLER_28_112
*1165 FILLER_28_119
*1166 FILLER_28_126
*1167 FILLER_28_133
*1168 FILLER_28_14
*1169 FILLER_28_140
*1170 FILLER_28_147
*1171 FILLER_28_154
*1172 FILLER_28_161
*1173 FILLER_28_168
*1174 FILLER_28_175
*1175 FILLER_28_182
*1176 FILLER_28_189
*1177 FILLER_28_196
*1178 FILLER_28_203
*1179 FILLER_28_21
*1180 FILLER_28_210
*1181 FILLER_28_217
*1182 FILLER_28_224
*1183 FILLER_28_231
*1184 FILLER_28_238
*1185 FILLER_28_245
*1186 FILLER_28_252
*1187 FILLER_28_259
*1188 FILLER_28_266
*1189 FILLER_28_273
*1190 FILLER_28_28
*1191 FILLER_28_280
*1192 FILLER_28_287
*1193 FILLER_28_294
*1194 FILLER_28_301
*1195 FILLER_28_308
*1196 FILLER_28_315
*1197 FILLER_28_322
*1198 FILLER_28_329
*1199 FILLER_28_336
*1200 FILLER_28_35
*1201 FILLER_28_382
*1202 FILLER_28_389
*1203 FILLER_28_391
*1204 FILLER_28_42
*1205 FILLER_28_49
*1206 FILLER_28_56
*1207 FILLER_28_63
*1208 FILLER_28_7
*1209 FILLER_28_70
*1210 FILLER_28_77
*1211 FILLER_28_84
*1212 FILLER_28_91
*1213 FILLER_28_98
*1214 FILLER_29_0
*1215 FILLER_29_105
*1216 FILLER_29_112
*1217 FILLER_29_119
*1218 FILLER_29_126
*1219 FILLER_29_133
*1220 FILLER_29_14
*1221 FILLER_29_140
*1222 FILLER_29_147
*1223 FILLER_29_154
*1224 FILLER_29_161
*1225 FILLER_29_168
*1226 FILLER_29_175
*1227 FILLER_29_182
*1228 FILLER_29_189
*1229 FILLER_29_196
*1230 FILLER_29_203
*1231 FILLER_29_21
*1232 FILLER_29_210
*1233 FILLER_29_217
*1234 FILLER_29_224
*1235 FILLER_29_231
*1236 FILLER_29_238
*1237 FILLER_29_245
*1238 FILLER_29_252
*1239 FILLER_29_259
*1240 FILLER_29_266
*1241 FILLER_29_273
*1242 FILLER_29_28
*1243 FILLER_29_280
*1244 FILLER_29_287
*1245 FILLER_29_294
*1246 FILLER_29_301
*1247 FILLER_29_308
*1248 FILLER_29_315
*1249 FILLER_29_322
*1250 FILLER_29_329
*1251 FILLER_29_336
*1252 FILLER_29_343
*1253 FILLER_29_35
*1254 FILLER_29_389
*1255 FILLER_29_391
*1256 FILLER_29_42
*1257 FILLER_29_49
*1258 FILLER_29_56
*1259 FILLER_29_63
*1260 FILLER_29_7
*1261 FILLER_29_70
*1262 FILLER_29_77
*1263 FILLER_29_84
*1264 FILLER_29_91
*1265 FILLER_29_98
*1266 FILLER_2_0
*1267 FILLER_2_105
*1268 FILLER_2_112
*1269 FILLER_2_119
*1270 FILLER_2_126
*1271 FILLER_2_133
*1272 FILLER_2_14
*1273 FILLER_2_140
*1274 FILLER_2_147
*1275 FILLER_2_154
*1276 FILLER_2_161
*1277 FILLER_2_168
*1278 FILLER_2_175
*1279 FILLER_2_182
*1280 FILLER_2_189
*1281 FILLER_2_196
*1282 FILLER_2_203
*1283 FILLER_2_21
*1284 FILLER_2_210
*1285 FILLER_2_217
*1286 FILLER_2_224
*1287 FILLER_2_231
*1288 FILLER_2_238
*1289 FILLER_2_245
*1290 FILLER_2_252
*1291 FILLER_2_259
*1292 FILLER_2_266
*1293 FILLER_2_273
*1294 FILLER_2_28
*1295 FILLER_2_280
*1296 FILLER_2_287
*1297 FILLER_2_294
*1298 FILLER_2_301
*1299 FILLER_2_308
*1300 FILLER_2_315
*1301 FILLER_2_322
*1302 FILLER_2_329
*1303 FILLER_2_336
*1304 FILLER_2_343
*1305 FILLER_2_35
*1306 FILLER_2_350
*1307 FILLER_2_357
*1308 FILLER_2_364
*1309 FILLER_2_371
*1310 FILLER_2_378
*1311 FILLER_2_385
*1312 FILLER_2_42
*1313 FILLER_2_49
*1314 FILLER_2_56
*1315 FILLER_2_63
*1316 FILLER_2_7
*1317 FILLER_2_70
*1318 FILLER_2_77
*1319 FILLER_2_84
*1320 FILLER_2_91
*1321 FILLER_2_98
*1322 FILLER_30_0
*1323 FILLER_30_105
*1324 FILLER_30_112
*1325 FILLER_30_119
*1326 FILLER_30_126
*1327 FILLER_30_133
*1328 FILLER_30_14
*1329 FILLER_30_140
*1330 FILLER_30_147
*1331 FILLER_30_154
*1332 FILLER_30_161
*1333 FILLER_30_168
*1334 FILLER_30_175
*1335 FILLER_30_182
*1336 FILLER_30_189
*1337 FILLER_30_196
*1338 FILLER_30_203
*1339 FILLER_30_21
*1340 FILLER_30_210
*1341 FILLER_30_217
*1342 FILLER_30_224
*1343 FILLER_30_231
*1344 FILLER_30_238
*1345 FILLER_30_245
*1346 FILLER_30_252
*1347 FILLER_30_259
*1348 FILLER_30_266
*1349 FILLER_30_273
*1350 FILLER_30_28
*1351 FILLER_30_280
*1352 FILLER_30_287
*1353 FILLER_30_294
*1354 FILLER_30_301
*1355 FILLER_30_308
*1356 FILLER_30_315
*1357 FILLER_30_322
*1358 FILLER_30_329
*1359 FILLER_30_336
*1360 FILLER_30_343
*1361 FILLER_30_35
*1362 FILLER_30_350
*1363 FILLER_30_381
*1364 FILLER_30_388
*1365 FILLER_30_42
*1366 FILLER_30_49
*1367 FILLER_30_56
*1368 FILLER_30_63
*1369 FILLER_30_7
*1370 FILLER_30_70
*1371 FILLER_30_77
*1372 FILLER_30_84
*1373 FILLER_30_91
*1374 FILLER_30_98
*1375 FILLER_31_0
*1376 FILLER_31_105
*1377 FILLER_31_112
*1378 FILLER_31_119
*1379 FILLER_31_126
*1380 FILLER_31_133
*1381 FILLER_31_14
*1382 FILLER_31_140
*1383 FILLER_31_147
*1384 FILLER_31_154
*1385 FILLER_31_161
*1386 FILLER_31_168
*1387 FILLER_31_175
*1388 FILLER_31_182
*1389 FILLER_31_189
*1390 FILLER_31_196
*1391 FILLER_31_203
*1392 FILLER_31_21
*1393 FILLER_31_210
*1394 FILLER_31_217
*1395 FILLER_31_224
*1396 FILLER_31_231
*1397 FILLER_31_238
*1398 FILLER_31_245
*1399 FILLER_31_252
*1400 FILLER_31_259
*1401 FILLER_31_266
*1402 FILLER_31_273
*1403 FILLER_31_28
*1404 FILLER_31_280
*1405 FILLER_31_287
*1406 FILLER_31_294
*1407 FILLER_31_301
*1408 FILLER_31_308
*1409 FILLER_31_315
*1410 FILLER_31_322
*1411 FILLER_31_329
*1412 FILLER_31_336
*1413 FILLER_31_343
*1414 FILLER_31_35
*1415 FILLER_31_350
*1416 FILLER_31_357
*1417 FILLER_31_363
*1418 FILLER_31_371
*1419 FILLER_31_378
*1420 FILLER_31_385
*1421 FILLER_31_42
*1422 FILLER_31_49
*1423 FILLER_31_56
*1424 FILLER_31_63
*1425 FILLER_31_7
*1426 FILLER_31_70
*1427 FILLER_31_77
*1428 FILLER_31_84
*1429 FILLER_31_91
*1430 FILLER_31_98
*1431 FILLER_32_0
*1432 FILLER_32_105
*1433 FILLER_32_112
*1434 FILLER_32_119
*1435 FILLER_32_126
*1436 FILLER_32_133
*1437 FILLER_32_14
*1438 FILLER_32_140
*1439 FILLER_32_147
*1440 FILLER_32_154
*1441 FILLER_32_161
*1442 FILLER_32_168
*1443 FILLER_32_175
*1444 FILLER_32_182
*1445 FILLER_32_189
*1446 FILLER_32_196
*1447 FILLER_32_203
*1448 FILLER_32_21
*1449 FILLER_32_210
*1450 FILLER_32_217
*1451 FILLER_32_224
*1452 FILLER_32_231
*1453 FILLER_32_238
*1454 FILLER_32_245
*1455 FILLER_32_252
*1456 FILLER_32_259
*1457 FILLER_32_266
*1458 FILLER_32_273
*1459 FILLER_32_28
*1460 FILLER_32_280
*1461 FILLER_32_287
*1462 FILLER_32_294
*1463 FILLER_32_301
*1464 FILLER_32_308
*1465 FILLER_32_315
*1466 FILLER_32_322
*1467 FILLER_32_329
*1468 FILLER_32_336
*1469 FILLER_32_343
*1470 FILLER_32_35
*1471 FILLER_32_350
*1472 FILLER_32_357
*1473 FILLER_32_364
*1474 FILLER_32_371
*1475 FILLER_32_378
*1476 FILLER_32_385
*1477 FILLER_32_387
*1478 FILLER_32_42
*1479 FILLER_32_49
*1480 FILLER_32_56
*1481 FILLER_32_63
*1482 FILLER_32_7
*1483 FILLER_32_70
*1484 FILLER_32_77
*1485 FILLER_32_84
*1486 FILLER_32_91
*1487 FILLER_32_98
*1488 FILLER_33_0
*1489 FILLER_33_105
*1490 FILLER_33_112
*1491 FILLER_33_119
*1492 FILLER_33_126
*1493 FILLER_33_133
*1494 FILLER_33_14
*1495 FILLER_33_140
*1496 FILLER_33_147
*1497 FILLER_33_154
*1498 FILLER_33_161
*1499 FILLER_33_168
*1500 FILLER_33_175
*1501 FILLER_33_182
*1502 FILLER_33_189
*1503 FILLER_33_196
*1504 FILLER_33_203
*1505 FILLER_33_21
*1506 FILLER_33_210
*1507 FILLER_33_217
*1508 FILLER_33_224
*1509 FILLER_33_231
*1510 FILLER_33_238
*1511 FILLER_33_245
*1512 FILLER_33_252
*1513 FILLER_33_259
*1514 FILLER_33_266
*1515 FILLER_33_273
*1516 FILLER_33_28
*1517 FILLER_33_280
*1518 FILLER_33_287
*1519 FILLER_33_294
*1520 FILLER_33_301
*1521 FILLER_33_308
*1522 FILLER_33_315
*1523 FILLER_33_322
*1524 FILLER_33_329
*1525 FILLER_33_336
*1526 FILLER_33_343
*1527 FILLER_33_35
*1528 FILLER_33_350
*1529 FILLER_33_357
*1530 FILLER_33_364
*1531 FILLER_33_371
*1532 FILLER_33_378
*1533 FILLER_33_385
*1534 FILLER_33_42
*1535 FILLER_33_49
*1536 FILLER_33_56
*1537 FILLER_33_63
*1538 FILLER_33_7
*1539 FILLER_33_70
*1540 FILLER_33_77
*1541 FILLER_33_84
*1542 FILLER_33_91
*1543 FILLER_33_98
*1544 FILLER_34_0
*1545 FILLER_34_105
*1546 FILLER_34_112
*1547 FILLER_34_119
*1548 FILLER_34_126
*1549 FILLER_34_133
*1550 FILLER_34_14
*1551 FILLER_34_140
*1552 FILLER_34_147
*1553 FILLER_34_154
*1554 FILLER_34_161
*1555 FILLER_34_168
*1556 FILLER_34_175
*1557 FILLER_34_182
*1558 FILLER_34_189
*1559 FILLER_34_196
*1560 FILLER_34_203
*1561 FILLER_34_21
*1562 FILLER_34_210
*1563 FILLER_34_217
*1564 FILLER_34_224
*1565 FILLER_34_231
*1566 FILLER_34_238
*1567 FILLER_34_245
*1568 FILLER_34_252
*1569 FILLER_34_259
*1570 FILLER_34_266
*1571 FILLER_34_273
*1572 FILLER_34_28
*1573 FILLER_34_280
*1574 FILLER_34_287
*1575 FILLER_34_294
*1576 FILLER_34_301
*1577 FILLER_34_308
*1578 FILLER_34_315
*1579 FILLER_34_322
*1580 FILLER_34_329
*1581 FILLER_34_336
*1582 FILLER_34_343
*1583 FILLER_34_35
*1584 FILLER_34_350
*1585 FILLER_34_357
*1586 FILLER_34_364
*1587 FILLER_34_371
*1588 FILLER_34_378
*1589 FILLER_34_385
*1590 FILLER_34_42
*1591 FILLER_34_49
*1592 FILLER_34_56
*1593 FILLER_34_63
*1594 FILLER_34_7
*1595 FILLER_34_70
*1596 FILLER_34_77
*1597 FILLER_34_84
*1598 FILLER_34_91