*SPEF "ieee 1481-1999"
*DESIGN "counter_top"
*DATE "23:27:51 Thursday May 07, 2026"
*VENDOR "The OpenROAD Project"
*PROGRAM "OpenROAD"
*VERSION "26Q1-1024-gdcf36133a"
*DESIGN_FLOW "NAME_SCOPE LOCAL" "PIN_CAP NONE"
*DIVIDER /
*DELIMITER :
*BUS_DELIMITER []
*T_UNIT 1 NS
*C_UNIT 1 PF
*R_UNIT 1 OHM
*L_UNIT 1 HENRY

*NAME_MAP
*3 clock_i
*4 counter_value_o[0]
*5 counter_value_o[1]
*6 counter_value_o[2]
*7 counter_value_o[3]
*8 counter_value_o[4]
*9 counter_value_o[5]
*10 counter_value_o[6]
*11 counter_value_o[7]
*12 enable_i
*13 reset_n_i
*14 _00_
*15 _01_
*16 _02_
*17 _03_
*18 _04_
*19 _05_
*20 _06_
*21 _07_
*22 _08_
*23 _09_
*24 _10_
*25 _11_
*26 _12_
*27 _13_
*28 _14_
*29 _15_
*30 _16_
*31 _17_
*32 _18_
*33 _19_
*34 _20_
*35 _21_
*36 _22_
*37 _23_
*38 _24_
*39 _25_
*40 _26_
*41 _27_
*42 _28_
*43 _29_
*44 clknet_0_clock_i
*45 clknet_1_0__leaf_clock_i
*46 clknet_1_1__leaf_clock_i
*47 net
*48 net1
*49 net10
*50 net11
*51 net12
*52 net13
*53 net14
*54 net15
*55 net16
*56 net17
*57 net18
*58 net19
*59 net2
*60 net20
*61 net21
*62 net22
*63 net23
*64 net24
*65 net25
*66 net26
*67 net27
*68 net28
*69 net29
*70 net3
*71 net30
*72 net31
*73 net32
*74 net33
*75 net34
*76 net4
*77 net5
*78 net6
*79 net7
*80 net8
*81 net9
*82 FILLER_0_0
*83 FILLER_0_105
*84 FILLER_0_112
*85 FILLER_0_119
*86 FILLER_0_126
*87 FILLER_0_133
*88 FILLER_0_14
*89 FILLER_0_140
*90 FILLER_0_147
*91 FILLER_0_154
*92 FILLER_0_161
*93 FILLER_0_168
*94 FILLER_0_175
*95 FILLER_0_182
*96 FILLER_0_189
*97 FILLER_0_196
*98 FILLER_0_203
*99 FILLER_0_21
*100 FILLER_0_210
*101 FILLER_0_217
*102 FILLER_0_224
*103 FILLER_0_231
*104 FILLER_0_238
*105 FILLER_0_245
*106 FILLER_0_252
*107 FILLER_0_259
*108 FILLER_0_266
*109 FILLER_0_273
*110 FILLER_0_28
*111 FILLER_0_280
*112 FILLER_0_287
*113 FILLER_0_294
*114 FILLER_0_301
*115 FILLER_0_308
*116 FILLER_0_315
*117 FILLER_0_322
*118 FILLER_0_329
*119 FILLER_0_336
*120 FILLER_0_343
*121 FILLER_0_35
*122 FILLER_0_350
*123 FILLER_0_357
*124 FILLER_0_364
*125 FILLER_0_371
*126 FILLER_0_378
*127 FILLER_0_385
*128 FILLER_0_392
*129 FILLER_0_399
*130 FILLER_0_406
*131 FILLER_0_413
*132 FILLER_0_42
*133 FILLER_0_420
*134 FILLER_0_427
*135 FILLER_0_434
*136 FILLER_0_441
*137 FILLER_0_448
*138 FILLER_0_455
*139 FILLER_0_462
*140 FILLER_0_469
*141 FILLER_0_476
*142 FILLER_0_483
*143 FILLER_0_49
*144 FILLER_0_490
*145 FILLER_0_497
*146 FILLER_0_504
*147 FILLER_0_511
*148 FILLER_0_518
*149 FILLER_0_525
*150 FILLER_0_532
*151 FILLER_0_539
*152 FILLER_0_546
*153 FILLER_0_553
*154 FILLER_0_56
*155 FILLER_0_560
*156 FILLER_0_567
*157 FILLER_0_574
*158 FILLER_0_581
*159 FILLER_0_588
*160 FILLER_0_595
*161 FILLER_0_602
*162 FILLER_0_609
*163 FILLER_0_616
*164 FILLER_0_623
*165 FILLER_0_63
*166 FILLER_0_630
*167 FILLER_0_637
*168 FILLER_0_644
*169 FILLER_0_651
*170 FILLER_0_658
*171 FILLER_0_665
*172 FILLER_0_672
*173 FILLER_0_679
*174 FILLER_0_686
*175 FILLER_0_693
*176 FILLER_0_7
*177 FILLER_0_70
*178 FILLER_0_700
*179 FILLER_0_707
*180 FILLER_0_714
*181 FILLER_0_721
*182 FILLER_0_728
*183 FILLER_0_735
*184 FILLER_0_742
*185 FILLER_0_749
*186 FILLER_0_756
*187 FILLER_0_763
*188 FILLER_0_77
*189 FILLER_0_770
*190 FILLER_0_777
*191 FILLER_0_784
*192 FILLER_0_791
*193 FILLER_0_798
*194 FILLER_0_805
*195 FILLER_0_84
*196 FILLER_0_91
*197 FILLER_0_98
*198 FILLER_10_0
*199 FILLER_10_105
*200 FILLER_10_112
*201 FILLER_10_119
*202 FILLER_10_126
*203 FILLER_10_133
*204 FILLER_10_14
*205 FILLER_10_140
*206 FILLER_10_147
*207 FILLER_10_154
*208 FILLER_10_161
*209 FILLER_10_168
*210 FILLER_10_175
*211 FILLER_10_182
*212 FILLER_10_189
*213 FILLER_10_196
*214 FILLER_10_203
*215 FILLER_10_21
*216 FILLER_10_210
*217 FILLER_10_217
*218 FILLER_10_224
*219 FILLER_10_231
*220 FILLER_10_238
*221 FILLER_10_245
*222 FILLER_10_252
*223 FILLER_10_259
*224 FILLER_10_266
*225 FILLER_10_273
*226 FILLER_10_28
*227 FILLER_10_280
*228 FILLER_10_287
*229 FILLER_10_294
*230 FILLER_10_301
*231 FILLER_10_308
*232 FILLER_10_315
*233 FILLER_10_322
*234 FILLER_10_329
*235 FILLER_10_336
*236 FILLER_10_343
*237 FILLER_10_35
*238 FILLER_10_350
*239 FILLER_10_357
*240 FILLER_10_364
*241 FILLER_10_371
*242 FILLER_10_378
*243 FILLER_10_385
*244 FILLER_10_392
*245 FILLER_10_399
*246 FILLER_10_406
*247 FILLER_10_413
*248 FILLER_10_42
*249 FILLER_10_420
*250 FILLER_10_427
*251 FILLER_10_434
*252 FILLER_10_441
*253 FILLER_10_448
*254 FILLER_10_455
*255 FILLER_10_462
*256 FILLER_10_469
*257 FILLER_10_476
*258 FILLER_10_483
*259 FILLER_10_49
*260 FILLER_10_490
*261 FILLER_10_497
*262 FILLER_10_504
*263 FILLER_10_511
*264 FILLER_10_518
*265 FILLER_10_525
*266 FILLER_10_532
*267 FILLER_10_539
*268 FILLER_10_546
*269 FILLER_10_553
*270 FILLER_10_56
*271 FILLER_10_560
*272 FILLER_10_567
*273 FILLER_10_574
*274 FILLER_10_581
*275 FILLER_10_588
*276 FILLER_10_595
*277 FILLER_10_602
*278 FILLER_10_609
*279 FILLER_10_616
*280 FILLER_10_623
*281 FILLER_10_63
*282 FILLER_10_630
*283 FILLER_10_637
*284 FILLER_10_644
*285 FILLER_10_651
*286 FILLER_10_658
*287 FILLER_10_665
*288 FILLER_10_672
*289 FILLER_10_679
*290 FILLER_10_686
*291 FILLER_10_693
*292 FILLER_10_7
*293 FILLER_10_70
*294 FILLER_10_700
*295 FILLER_10_707
*296 FILLER_10_714
*297 FILLER_10_721
*298 FILLER_10_728
*299 FILLER_10_735
*300 FILLER_10_742
*301 FILLER_10_749
*302 FILLER_10_756
*303 FILLER_10_763
*304 FILLER_10_77
*305 FILLER_10_770
*306 FILLER_10_777
*307 FILLER_10_784
*308 FILLER_10_791
*309 FILLER_10_798
*310 FILLER_10_805
*311 FILLER_10_84
*312 FILLER_10_91
*313 FILLER_10_98
*314 FILLER_11_0
*315 FILLER_11_105
*316 FILLER_11_112
*317 FILLER_11_119
*318 FILLER_11_126
*319 FILLER_11_133
*320 FILLER_11_14
*321 FILLER_11_140
*322 FILLER_11_147
*323 FILLER_11_154
*324 FILLER_11_161
*325 FILLER_11_168
*326 FILLER_11_175
*327 FILLER_11_182
*328 FILLER_11_189
*329 FILLER_11_196
*330 FILLER_11_203
*331 FILLER_11_21
*332 FILLER_11_210
*333 FILLER_11_217
*334 FILLER_11_224
*335 FILLER_11_231
*336 FILLER_11_238
*337 FILLER_11_245
*338 FILLER_11_252
*339 FILLER_11_259
*340 FILLER_11_266
*341 FILLER_11_273
*342 FILLER_11_28
*343 FILLER_11_280
*344 FILLER_11_287
*345 FILLER_11_294
*346 FILLER_11_301
*347 FILLER_11_308
*348 FILLER_11_315
*349 FILLER_11_322
*350 FILLER_11_329
*351 FILLER_11_336
*352 FILLER_11_343
*353 FILLER_11_35
*354 FILLER_11_350
*355 FILLER_11_357
*356 FILLER_11_364
*357 FILLER_11_371
*358 FILLER_11_378
*359 FILLER_11_385
*360 FILLER_11_392
*361 FILLER_11_399
*362 FILLER_11_406
*363 FILLER_11_413
*364 FILLER_11_42
*365 FILLER_11_420
*366 FILLER_11_427
*367 FILLER_11_434
*368 FILLER_11_441
*369 FILLER_11_448
*370 FILLER_11_455
*371 FILLER_11_462
*372 FILLER_11_469
*373 FILLER_11_476
*374 FILLER_11_483
*375 FILLER_11_49
*376 FILLER_11_490
*377 FILLER_11_497
*378 FILLER_11_504
*379 FILLER_11_511
*380 FILLER_11_518
*381 FILLER_11_525
*382 FILLER_11_532
*383 FILLER_11_539
*384 FILLER_11_546
*385 FILLER_11_553
*386 FILLER_11_56
*387 FILLER_11_560
*388 FILLER_11_567
*389 FILLER_11_574
*390 FILLER_11_581
*391 FILLER_11_588
*392 FILLER_11_595
*393 FILLER_11_602
*394 FILLER_11_609
*395 FILLER_11_616
*396 FILLER_11_623
*397 FILLER_11_63
*398 FILLER_11_630
*399 FILLER_11_637
*400 FILLER_11_644
*401 FILLER_11_651
*402 FILLER_11_658
*403 FILLER_11_665
*404 FILLER_11_672
*405 FILLER_11_679
*406 FILLER_11_686
*407 FILLER_11_693
*408 FILLER_11_7
*409 FILLER_11_70
*410 FILLER_11_700
*411 FILLER_11_707
*412 FILLER_11_714
*413 FILLER_11_721
*414 FILLER_11_728
*415 FILLER_11_735
*416 FILLER_11_742
*417 FILLER_11_749
*418 FILLER_11_756
*419 FILLER_11_763
*420 FILLER_11_77
*421 FILLER_11_770
*422 FILLER_11_777
*423 FILLER_11_784
*424 FILLER_11_791
*425 FILLER_11_798
*426 FILLER_11_805
*427 FILLER_11_84
*428 FILLER_11_91
*429 FILLER_11_98
*430 FILLER_12_0
*431 FILLER_12_105
*432 FILLER_12_112
*433 FILLER_12_119
*434 FILLER_12_126
*435 FILLER_12_133
*436 FILLER_12_14
*437 FILLER_12_140
*438 FILLER_12_147
*439 FILLER_12_154
*440 FILLER_12_161
*441 FILLER_12_168
*442 FILLER_12_175
*443 FILLER_12_182
*444 FILLER_12_189
*445 FILLER_12_196
*446 FILLER_12_203
*447 FILLER_12_21
*448 FILLER_12_210
*449 FILLER_12_217
*450 FILLER_12_224
*451 FILLER_12_231
*452 FILLER_12_238
*453 FILLER_12_245
*454 FILLER_12_252
*455 FILLER_12_259
*456 FILLER_12_266
*457 FILLER_12_273
*458 FILLER_12_28
*459 FILLER_12_280
*460 FILLER_12_287
*461 FILLER_12_294
*462 FILLER_12_301
*463 FILLER_12_308
*464 FILLER_12_315
*465 FILLER_12_322
*466 FILLER_12_329
*467 FILLER_12_336
*468 FILLER_12_343
*469 FILLER_12_35
*470 FILLER_12_350
*471 FILLER_12_357
*472 FILLER_12_364
*473 FILLER_12_371
*474 FILLER_12_378
*475 FILLER_12_385
*476 FILLER_12_392
*477 FILLER_12_399
*478 FILLER_12_406
*479 FILLER_12_413
*480 FILLER_12_42
*481 FILLER_12_420
*482 FILLER_12_427
*483 FILLER_12_434
*484 FILLER_12_441
*485 FILLER_12_448
*486 FILLER_12_455
*487 FILLER_12_462
*488 FILLER_12_469
*489 FILLER_12_476
*490 FILLER_12_483
*491 FILLER_12_49
*492 FILLER_12_490
*493 FILLER_12_497
*494 FILLER_12_504
*495 FILLER_12_511
*496 FILLER_12_518
*497 FILLER_12_525
*498 FILLER_12_532
*499 FILLER_12_539
*500 FILLER_12_546
*501 FILLER_12_553
*502 FILLER_12_56
*503 FILLER_12_560
*504 FILLER_12_567
*505 FILLER_12_574
*506 FILLER_12_581
*507 FILLER_12_588
*508 FILLER_12_595
*509 FILLER_12_602
*510 FILLER_12_609
*511 FILLER_12_616
*512 FILLER_12_623
*513 FILLER_12_63
*514 FILLER_12_630
*515 FILLER_12_637
*516 FILLER_12_644
*517 FILLER_12_651
*518 FILLER_12_658
*519 FILLER_12_665
*520 FILLER_12_672
*521 FILLER_12_679
*522 FILLER_12_686
*523 FILLER_12_693
*524 FILLER_12_7
*525 FILLER_12_70
*526 FILLER_12_700
*527 FILLER_12_707
*528 FILLER_12_714
*529 FILLER_12_721
*530 FILLER_12_728
*531 FILLER_12_735
*532 FILLER_12_742
*533 FILLER_12_749
*534 FILLER_12_756
*535 FILLER_12_763
*536 FILLER_12_77
*537 FILLER_12_770
*538 FILLER_12_777
*539 FILLER_12_784
*540 FILLER_12_791
*541 FILLER_12_798
*542 FILLER_12_805
*543 FILLER_12_84
*544 FILLER_12_91
*545 FILLER_12_98
*546 FILLER_13_0
*547 FILLER_13_105
*548 FILLER_13_112
*549 FILLER_13_119
*550 FILLER_13_126
*551 FILLER_13_133
*552 FILLER_13_14
*553 FILLER_13_140
*554 FILLER_13_147
*555 FILLER_13_154
*556 FILLER_13_161
*557 FILLER_13_168
*558 FILLER_13_175
*559 FILLER_13_182
*560 FILLER_13_189
*561 FILLER_13_196
*562 FILLER_13_203
*563 FILLER_13_21
*564 FILLER_13_210
*565 FILLER_13_217
*566 FILLER_13_224
*567 FILLER_13_231
*568 FILLER_13_238
*569 FILLER_13_245
*570 FILLER_13_252
*571 FILLER_13_259
*572 FILLER_13_266
*573 FILLER_13_273
*574 FILLER_13_28
*575 FILLER_13_280
*576 FILLER_13_287
*577 FILLER_13_294
*578 FILLER_13_301
*579 FILLER_13_308
*580 FILLER_13_315
*581 FILLER_13_322
*582 FILLER_13_329
*583 FILLER_13_336
*584 FILLER_13_343
*585 FILLER_13_35
*586 FILLER_13_350
*587 FILLER_13_357
*588 FILLER_13_364
*589 FILLER_13_371
*590 FILLER_13_378
*591 FILLER_13_385
*592 FILLER_13_392
*593 FILLER_13_399
*594 FILLER_13_406
*595 FILLER_13_413
*596 FILLER_13_42
*597 FILLER_13_420
*598 FILLER_13_427
*599 FILLER_13_434
*600 FILLER_13_441
*601 FILLER_13_448
*602 FILLER_13_455
*603 FILLER_13_462
*604 FILLER_13_469
*605 FILLER_13_476
*606 FILLER_13_483
*607 FILLER_13_49
*608 FILLER_13_490
*609 FILLER_13_497
*610 FILLER_13_504
*611 FILLER_13_511
*612 FILLER_13_518
*613 FILLER_13_525
*614 FILLER_13_532
*615 FILLER_13_539
*616 FILLER_13_546
*617 FILLER_13_553
*618 FILLER_13_56
*619 FILLER_13_560
*620 FILLER_13_567
*621 FILLER_13_574
*622 FILLER_13_581
*623 FILLER_13_588
*624 FILLER_13_595
*625 FILLER_13_602
*626 FILLER_13_609
*627 FILLER_13_616
*628 FILLER_13_623
*629 FILLER_13_63
*630 FILLER_13_630
*631 FILLER_13_637
*632 FILLER_13_644
*633 FILLER_13_651
*634 FILLER_13_658
*635 FILLER_13_665
*636 FILLER_13_672
*637 FILLER_13_679
*638 FILLER_13_686
*639 FILLER_13_693
*640 FILLER_13_7
*641 FILLER_13_70
*642 FILLER_13_700
*643 FILLER_13_707
*644 FILLER_13_714
*645 FILLER_13_721
*646 FILLER_13_728
*647 FILLER_13_735
*648 FILLER_13_742
*649 FILLER_13_749
*650 FILLER_13_756
*651 FILLER_13_763
*652 FILLER_13_77
*653 FILLER_13_770
*654 FILLER_13_777
*655 FILLER_13_784
*656 FILLER_13_791
*657 FILLER_13_798
*658 FILLER_13_805
*659 FILLER_13_84
*660 FILLER_13_91
*661 FILLER_13_98
*662 FILLER_14_102
*663 FILLER_14_109
*664 FILLER_14_11
*665 FILLER_14_116
*666 FILLER_14_123
*667 FILLER_14_130
*668 FILLER_14_137
*669 FILLER_14_144
*670 FILLER_14_151
*671 FILLER_14_158
*672 FILLER_14_165
*673 FILLER_14_172
*674 FILLER_14_179
*675 FILLER_14_18
*676 FILLER_14_186
*677 FILLER_14_193
*678 FILLER_14_200
*679 FILLER_14_207
*680 FILLER_14_214
*681 FILLER_14_221
*682 FILLER_14_228
*683 FILLER_14_235
*684 FILLER_14_242
*685 FILLER_14_249
*686 FILLER_14_25
*687 FILLER_14_256
*688 FILLER_14_263
*689 FILLER_14_270
*690 FILLER_14_277
*691 FILLER_14_284
*692 FILLER_14_291
*693 FILLER_14_298
*694 FILLER_14_305
*695 FILLER_14_312
*696 FILLER_14_319
*697 FILLER_14_32
*698 FILLER_14_326
*699 FILLER_14_333
*700 FILLER_14_340
*701 FILLER_14_347
*702 FILLER_14_354
*703 FILLER_14_361
*704 FILLER_14_368
*705 FILLER_14_375
*706 FILLER_14_382
*707 FILLER_14_389
*708 FILLER_14_39
*709 FILLER_14_396
*710 FILLER_14_4
*711 FILLER_14_403
*712 FILLER_14_410
*713 FILLER_14_417
*714 FILLER_14_424
*715 FILLER_14_431
*716 FILLER_14_438
*717 FILLER_14_445
*718 FILLER_14_452
*719 FILLER_14_459
*720 FILLER_14_46
*721 FILLER_14_466
*722 FILLER_14_473
*723 FILLER_14_480
*724 FILLER_14_487
*725 FILLER_14_494
*726 FILLER_14_501
*727 FILLER_14_508
*728 FILLER_14_515
*729 FILLER_14_522
*730 FILLER_14_529
*731 FILLER_14_53
*732 FILLER_14_536
*733 FILLER_14_543
*734 FILLER_14_550
*735 FILLER_14_557
*736 FILLER_14_564
*737 FILLER_14_571
*738 FILLER_14_578
*739 FILLER_14_585
*740 FILLER_14_592
*741 FILLER_14_599
*742 FILLER_14_60
*743 FILLER_14_606
*744 FILLER_14_613
*745 FILLER_14_620
*746 FILLER_14_627
*747 FILLER_14_634
*748 FILLER_14_641
*749 FILLER_14_648
*750 FILLER_14_655
*751 FILLER_14_662
*752 FILLER_14_669
*753 FILLER_14_67
*754 FILLER_14_676
*755 FILLER_14_683
*756 FILLER_14_690
*757 FILLER_14_697
*758 FILLER_14_704
*759 FILLER_14_711
*760 FILLER_14_718
*761 FILLER_14_725
*762 FILLER_14_732
*763 FILLER_14_739
*764 FILLER_14_74
*765 FILLER_14_746
*766 FILLER_14_753
*767 FILLER_14_760
*768 FILLER_14_767
*769 FILLER_14_774
*770 FILLER_14_781
*771 FILLER_14_788
*772 FILLER_14_795
*773 FILLER_14_802
*774 FILLER_14_81
*775 FILLER_14_88
*776 FILLER_14_95
*777 FILLER_15_0
*778 FILLER_15_105
*779 FILLER_15_112
*780 FILLER_15_119
*781 FILLER_15_126
*782 FILLER_15_133
*783 FILLER_15_14
*784 FILLER_15_140
*785 FILLER_15_147
*786 FILLER_15_154
*787 FILLER_15_161
*788 FILLER_15_168
*789 FILLER_15_175
*790 FILLER_15_182
*791 FILLER_15_189
*792 FILLER_15_196
*793 FILLER_15_203
*794 FILLER_15_21
*795 FILLER_15_210
*796 FILLER_15_217
*797 FILLER_15_224
*798 FILLER_15_231
*799 FILLER_15_238
*800 FILLER_15_245
*801 FILLER_15_252
*802 FILLER_15_259
*803 FILLER_15_266
*804 FILLER_15_273
*805 FILLER_15_28
*806 FILLER_15_280
*807 FILLER_15_287
*808 FILLER_15_294
*809 FILLER_15_301
*810 FILLER_15_308
*811 FILLER_15_315
*812 FILLER_15_322
*813 FILLER_15_329
*814 FILLER_15_336
*815 FILLER_15_343
*816 FILLER_15_35
*817 FILLER_15_350
*818 FILLER_15_357
*819 FILLER_15_364
*820 FILLER_15_371
*821 FILLER_15_378
*822 FILLER_15_385
*823 FILLER_15_392
*824 FILLER_15_399
*825 FILLER_15_406
*826 FILLER_15_413
*827 FILLER_15_42
*828 FILLER_15_420
*829 FILLER_15_427
*830 FILLER_15_434
*831 FILLER_15_441
*832 FILLER_15_448
*833 FILLER_15_455
*834 FILLER_15_462
*835 FILLER_15_469
*836 FILLER_15_476
*837 FILLER_15_483
*838 FILLER_15_49
*839 FILLER_15_490
*840 FILLER_15_497
*841 FILLER_15_504
*842 FILLER_15_511
*843 FILLER_15_518
*844 FILLER_15_525
*845 FILLER_15_532
*846 FILLER_15_539
*847 FILLER_15_546
*848 FILLER_15_553
*849 FILLER_15_56
*850 FILLER_15_560
*851 FILLER_15_567
*852 FILLER_15_574
*853 FILLER_15_581
*854 FILLER_15_588
*855 FILLER_15_595
*856 FILLER_15_602
*857 FILLER_15_609
*858 FILLER_15_616
*859 FILLER_15_623
*860 FILLER_15_63
*861 FILLER_15_630
*862 FILLER_15_637
*863 FILLER_15_644
*864 FILLER_15_651
*865 FILLER_15_658
*866 FILLER_15_665
*867 FILLER_15_672
*868 FILLER_15_679
*869 FILLER_15_686
*870 FILLER_15_693
*871 FILLER_15_7
*872 FILLER_15_70
*873 FILLER_15_700
*874 FILLER_15_707
*875 FILLER_15_714
*876 FILLER_15_721
*877 FILLER_15_728
*878 FILLER_15_735
*879 FILLER_15_742
*880 FILLER_15_749
*881 FILLER_15_756
*882 FILLER_15_763
*883 FILLER_15_77
*884 FILLER_15_770
*885 FILLER_15_777
*886 FILLER_15_784
*887 FILLER_15_791
*888 FILLER_15_798
*889 FILLER_15_805
*890 FILLER_15_84
*891 FILLER_15_91
*892 FILLER_15_98
*893 FILLER_16_0
*894 FILLER_16_105
*895 FILLER_16_112
*896 FILLER_16_119
*897 FILLER_16_126
*898 FILLER_16_133
*899 FILLER_16_14
*900 FILLER_16_140
*901 FILLER_16_147
*902 FILLER_16_154
*903 FILLER_16_161
*904 FILLER_16_168
*905 FILLER_16_175
*906 FILLER_16_182
*907 FILLER_16_189
*908 FILLER_16_196
*909 FILLER_16_203
*910 FILLER_16_21
*911 FILLER_16_210
*912 FILLER_16_217
*913 FILLER_16_224
*914 FILLER_16_231
*915 FILLER_16_238
*916 FILLER_16_245
*917 FILLER_16_252
*918 FILLER_16_259
*919 FILLER_16_266
*920 FILLER_16_273
*921 FILLER_16_28
*922 FILLER_16_280
*923 FILLER_16_287
*924 FILLER_16_294
*925 FILLER_16_301
*926 FILLER_16_308
*927 FILLER_16_315
*928 FILLER_16_322
*929 FILLER_16_329
*930 FILLER_16_336
*931 FILLER_16_343
*932 FILLER_16_35
*933 FILLER_16_350
*934 FILLER_16_357
*935 FILLER_16_364
*936 FILLER_16_371
*937 FILLER_16_378
*938 FILLER_16_385
*939 FILLER_16_392
*940 FILLER_16_399
*941 FILLER_16_406
*942 FILLER_16_413
*943 FILLER_16_42
*944 FILLER_16_420
*945 FILLER_16_427
*946 FILLER_16_434
*947 FILLER_16_441
*948 FILLER_16_448
*949 FILLER_16_455
*950 FILLER_16_462
*951 FILLER_16_469
*952 FILLER_16_476
*953 FILLER_16_483
*954 FILLER_16_49
*955 FILLER_16_490
*956 FILLER_16_497
*957 FILLER_16_504
*958 FILLER_16_511
*959 FILLER_16_518
*960 FILLER_16_525
*961 FILLER_16_532
*962 FILLER_16_539
*963 FILLER_16_546
*964 FILLER_16_553
*965 FILLER_16_56
*966 FILLER_16_560
*967 FILLER_16_567
*968 FILLER_16_574
*969 FILLER_16_581
*970 FILLER_16_588
*971 FILLER_16_595
*972 FILLER_16_602
*973 FILLER_16_609
*974 FILLER_16_616
*975 FILLER_16_623
*976 FILLER_16_63
*977 FILLER_16_630
*978 FILLER_16_637
*979 FILLER_16_644
*980 FILLER_16_651
*981 FILLER_16_658
*982 FILLER_16_665
*983 FILLER_16_672
*984 FILLER_16_679
*985 FILLER_16_686
*986 FILLER_16_693
*987 FILLER_16_7
*988 FILLER_16_70
*989 FILLER_16_700
*990 FILLER_16_707
*991 FILLER_16_714
*992 FILLER_16_721
*993 FILLER_16_728
*994 FILLER_16_735
*995 FILLER_16_742
*996 FILLER_16_749
*997 FILLER_16_756
*998 FILLER_16_763
*999 FILLER_16_77
*1000 FILLER_16_770
*1001 FILLER_16_777
*1002 FILLER_16_784
*1003 FILLER_16_791
*1004 FILLER_16_798
*1005 FILLER_16_84
*1006 FILLER_16_91
*1007 FILLER_16_98
*1008 FILLER_17_0
*1009 FILLER_17_105
*1010 FILLER_17_112
*1011 FILLER_17_119
*1012 FILLER_17_126
*1013 FILLER_17_133
*1014 FILLER_17_14
*1015 FILLER_17_140
*1016 FILLER_17_147
*1017 FILLER_17_154
*1018 FILLER_17_161
*1019 FILLER_17_168
*1020 FILLER_17_175
*1021 FILLER_17_182
*1022 FILLER_17_189
*1023 FILLER_17_196
*1024 FILLER_17_203
*1025 FILLER_17_21
*1026 FILLER_17_210
*1027 FILLER_17_217
*1028 FILLER_17_224
*1029 FILLER_17_231
*1030 FILLER_17_238
*1031 FILLER_17_245
*1032 FILLER_17_252
*1033 FILLER_17_259
*1034 FILLER_17_266
*1035 FILLER_17_273
*1036 FILLER_17_28
*1037 FILLER_17_280
*1038 FILLER_17_287
*1039 FILLER_17_294
*1040 FILLER_17_301
*1041 FILLER_17_308
*1042 FILLER_17_315
*1043 FILLER_17_322
*1044 FILLER_17_329
*1045 FILLER_17_336
*1046 FILLER_17_343
*1047 FILLER_17_35
*1048 FILLER_17_350
*1049 FILLER_17_357
*1050 FILLER_17_364
*1051 FILLER_17_371
*1052 FILLER_17_378
*1053 FILLER_17_385
*1054 FILLER_17_392
*1055 FILLER_17_399
*1056 FILLER_17_406
*1057 FILLER_17_413
*1058 FILLER_17_42
*1059 FILLER_17_420
*1060 FILLER_17_427
*1061 FILLER_17_434
*1062 FILLER_17_441
*1063 FILLER_17_448
*1064 FILLER_17_455
*1065 FILLER_17_462
*1066 FILLER_17_469
*1067 FILLER_17_476
*1068 FILLER_17_483
*1069 FILLER_17_49
*1070 FILLER_17_490
*1071 FILLER_17_497
*1072 FILLER_17_504
*1073 FILLER_17_511
*1074 FILLER_17_518
*1075 FILLER_17_525
*1076 FILLER_17_532
*1077 FILLER_17_539
*1078 FILLER_17_546
*1079 FILLER_17_553
*1080 FILLER_17_56
*1081 FILLER_17_560
*1082 FILLER_17_567
*1083 FILLER_17_574
*1084 FILLER_17_581
*1085 FILLER_17_588
*1086 FILLER_17_595
*1087 FILLER_17_602
*1088 FILLER_17_609
*1089 FILLER_17_616
*1090 FILLER_17_623
*1091 FILLER_17_63
*1092 FILLER_17_630
*1093 FILLER_17_637
*1094 FILLER_17_644
*1095 FILLER_17_651
*1096 FILLER_17_658
*1097 FILLER_17_665
*1098 FILLER_17_672
*1099 FILLER_17_679
*1100 FILLER_17_686
*1101 FILLER_17_693
*1102 FILLER_17_7
*1103 FILLER_17_70
*1104 FILLER_17_700
*1105 FILLER_17_707
*1106 FILLER_17_714
*1107 FILLER_17_721
*1108 FILLER_17_728
*1109 FILLER_17_735
*1110 FILLER_17_742
*1111 FILLER_17_749
*1112 FILLER_17_756
*1113 FILLER_17_763
*1114 FILLER_17_77
*1115 FILLER_17_770
*1116 FILLER_17_777
*1117 FILLER_17_784
*1118 FILLER_17_791
*1119 FILLER_17_798
*1120 FILLER_17_805
*1121 FILLER_17_84
*1122 FILLER_17_91
*1123 FILLER_17_98
*1124 FILLER_18_0
*1125 FILLER_18_105
*1126 FILLER_18_112
*1127 FILLER_18_119
*1128 FILLER_18_126
*1129 FILLER_18_133
*1130 FILLER_18_14
*1131 FILLER_18_140
*1132 FILLER_18_147
*1133 FILLER_18_154
*1134 FILLER_18_161
*1135 FILLER_18_168
*1136 FILLER_18_175
*1137 FILLER_18_182
*1138 FILLER_18_189
*1139 FILLER_18_196
*1140 FILLER_18_203
*1141 FILLER_18_21
*1142 FILLER_18_210
*1143 FILLER_18_217
*1144 FILLER_18_224
*1145 FILLER_18_231
*1146 FILLER_18_238
*1147 FILLER_18_245
*1148 FILLER_18_252
*1149 FILLER_18_259
*1150 FILLER_18_266
*1151 FILLER_18_273
*1152 FILLER_18_28
*1153 FILLER_18_280
*1154 FILLER_18_287
*1155 FILLER_18_294
*1156 FILLER_18_301
*1157 FILLER_18_308
*1158 FILLER_18_315
*1159 FILLER_18_322
*1160 FILLER_18_329
*1161 FILLER_18_336
*1162 FILLER_18_343
*1163 FILLER_18_35
*1164 FILLER_18_350
*1165 FILLER_18_357
*1166 FILLER_18_364
*1167 FILLER_18_371
*1168 FILLER_18_378
*1169 FILLER_18_385
*1170 FILLER_18_392
*1171 FILLER_18_399
*1172 FILLER_18_406
*1173 FILLER_18_413
*1174 FILLER_18_42
*1175 FILLER_18_420
*1176 FILLER_18_427
*1177 FILLER_18_434
*1178 FILLER_18_441
*1179 FILLER_18_448
*1180 FILLER_18_455
*1181 FILLER_18_462
*1182 FILLER_18_469
*1183 FILLER_18_476
*1184 FILLER_18_483
*1185 FILLER_18_49
*1186 FILLER_18_490
*1187 FILLER_18_497
*1188 FILLER_18_504
*1189 FILLER_18_511
*1190 FILLER_18_518
*1191 FILLER_18_525
*1192 FILLER_18_532
*1193 FILLER_18_539
*1194 FILLER_18_546
*1195 FILLER_18_553
*1196 FILLER_18_56
*1197 FILLER_18_560
*1198 FILLER_18_567
*1199 FILLER_18_574
*1200 FILLER_18_581
*1201 FILLER_18_588
*1202 FILLER_18_595
*1203 FILLER_18_602
*1204 FILLER_18_609
*1205 FILLER_18_616
*1206 FILLER_18_623
*1207 FILLER_18_63
*1208 FILLER_18_630
*1209 FILLER_18_637
*1210 FILLER_18_644
*1211 FILLER_18_651
*1212 FILLER_18_658
*1213 FILLER_18_665
*1214 FILLER_18_672
*1215 FILLER_18_679
*1216 FILLER_18_686
*1217 FILLER_18_693
*1218 FILLER_18_7
*1219 FILLER_18_70
*1220 FILLER_18_700
*1221 FILLER_18_707
*1222 FILLER_18_714
*1223 FILLER_18_721
*1224 FILLER_18_728
*1225 FILLER_18_735
*1226 FILLER_18_742
*1227 FILLER_18_749
*1228 FILLER_18_756
*1229 FILLER_18_763
*1230 FILLER_18_77
*1231 FILLER_18_770
*1232 FILLER_18_777
*1233 FILLER_18_784
*1234 FILLER_18_791
*1235 FILLER_18_798
*1236 FILLER_18_805
*1237 FILLER_18_84
*1238 FILLER_18_91
*1239 FILLER_18_98
*1240 FILLER_19_0
*1241 FILLER_19_105
*1242 FILLER_19_112
*1243 FILLER_19_119
*1244 FILLER_19_126
*1245 FILLER_19_133
*1246 FILLER_19_14
*1247 FILLER_19_140
*1248 FILLER_19_147
*1249 FILLER_19_154
*1250 FILLER_19_161
*1251 FILLER_19_168
*1252 FILLER_19_175
*1253 FILLER_19_182
*1254 FILLER_19_189
*1255 FILLER_19_196
*1256 FILLER_19_203
*1257 FILLER_19_21
*1258 FILLER_19_210
*1259 FILLER_19_217
*1260 FILLER_19_224
*1261 FILLER_19_231
*1262 FILLER_19_238
*1263 FILLER_19_245
*1264 FILLER_19_252
*1265 FILLER_19_259
*1266 FILLER_19_266
*1267 FILLER_19_273
*1268 FILLER_19_28
*1269 FILLER_19_280
*1270 FILLER_19_287
*1271 FILLER_19_294
*1272 FILLER_19_301
*1273 FILLER_19_308
*1274 FILLER_19_315
*1275 FILLER_19_322
*1276 FILLER_19_329
*1277 FILLER_19_336
*1278 FILLER_19_343
*1279 FILLER_19_35
*1280 FILLER_19_350
*1281 FILLER_19_357
*1282 FILLER_19_364
*1283 FILLER_19_371
*1284 FILLER_19_378
*1285 FILLER_19_385
*1286 FILLER_19_392
*1287 FILLER_19_399
*1288 FILLER_19_406
*1289 FILLER_19_413
*1290 FILLER_19_42
*1291 FILLER_19_420
*1292 FILLER_19_427
*1293 FILLER_19_434
*1294 FILLER_19_441
*1295 FILLER_19_448
*1296 FILLER_19_455
*1297 FILLER_19_462
*1298 FILLER_19_469
*1299 FILLER_19_476
*1300 FILLER_19_483
*1301 FILLER_19_49
*1302 FILLER_19_490
*1303 FILLER_19_497
*1304 FILLER_19_504
*1305 FILLER_19_511
*1306 FILLER_19_518
*1307 FILLER_19_525
*1308 FILLER_19_532
*1309 FILLER_19_539
*1310 FILLER_19_546
*1311 FILLER_19_553
*1312 FILLER_19_56
*1313 FILLER_19_560
*1314 FILLER_19_567
*1315 FILLER_19_574
*1316 FILLER_19_581
*1317 FILLER_19_588
*1318 FILLER_19_595
*1319 FILLER_19_602
*1320 FILLER_19_609
*1321 FILLER_19_616
*1322 FILLER_19_623
*1323 FILLER_19_63
*1324 FILLER_19_630
*1325 FILLER_19_637
*1326 FILLER_19_644
*1327 FILLER_19_651
*1328 FILLER_19_658
*1329 FILLER_19_665
*1330 FILLER_19_672
*1331 FILLER_19_679
*1332 FILLER_19_686
*1333 FILLER_19_693
*1334 FILLER_19_7
*1335 FILLER_19_70
*1336 FILLER_19_700
*1337 FILLER_19_707
*1338 FILLER_19_714
*1339 FILLER_19_721
*1340 FILLER_19_728
*1341 FILLER_19_735
*1342 FILLER_19_742
*1343 FILLER_19_749
*1344 FILLER_19_756
*1345 FILLER_19_763
*1346 FILLER_19_77
*1347 FILLER_19_770
*1348 FILLER_19_777
*1349 FILLER_19_784
*1350 FILLER_19_791
*1351 FILLER_19_798
*1352 FILLER_19_805
*1353 FILLER_19_84
*1354 FILLER_19_91
*1355 FILLER_19_98
*1356 FILLER_1_0
*1357 FILLER_1_105
*1358 FILLER_1_112
*1359 FILLER_1_119
*1360 FILLER_1_126
*1361 FILLER_1_133
*1362 FILLER_1_14
*1363 FILLER_1_140
*1364 FILLER_1_147
*1365 FILLER_1_154
*1366 FILLER_1_161
*1367 FILLER_1_168
*1368 FILLER_1_175
*1369 FILLER_1_182
*1370 FILLER_1_189
*1371 FILLER_1_196
*1372 FILLER_1_203
*1373 FILLER_1_21
*1374 FILLER_1_210
*1375 FILLER_1_217
*1376 FILLER_1_224
*1377 FILLER_1_231
*1378 FILLER_1_238
*1379 FILLER_1_245
*1380 FILLER_1_252
*1381 FILLER_1_259
*1382 FILLER_1_266
*1383 FILLER_1_273
*1384 FILLER_1_28
*1385 FILLER_1_280
*1386 FILLER_1_287
*1387 FILLER_1_294
*1388 FILLER_1_301
*1389 FILLER_1_308
*1390 FILLER_1_315
*1391 FILLER_1_322
*1392 FILLER_1_329
*1393 FILLER_1_336
*1394 FILLER_1_343
*1395 FILLER_1_35
*1396 FILLER_1_350
*1397 FILLER_1_357
*1398 FILLER_1_364
*1399 FILLER_1_371
*1400 FILLER_1_378
*1401 FILLER_1_385
*1402 FILLER_1_392
*1403 FILLER_1_399
*1404 FILLER_1_406
*1405 FILLER_1_413
*1406 FILLER_1_42
*1407 FILLER_1_420
*1408 FILLER_1_427
*1409 FILLER_1_434
*1410 FILLER_1_441
*1411 FILLER_1_448
*1412 FILLER_1_455
*1413 FILLER_1_462
*1414 FILLER_1_469
*1415 FILLER_1_476
*1416 FILLER_1_483
*1417 FILLER_1_49
*1418 FILLER_1_490
*1419 FILLER_1_497
*1420 FILLER_1_504
*1421 FILLER_1_511
*1422 FILLER_1_518
*1423 FILLER_1_525
*1424 FILLER_1_532
*1425 FILLER_1_539
*1426 FILLER_1_546
*1427 FILLER_1_553
*1428 FILLER_1_56
*1429 FILLER_1_560
*1430 FILLER_1_567
*1431 FILLER_1_574
*1432 FILLER_1_581
*1433 FILLER_1_588
*1434 FILLER_1_595
*1435 FILLER_1_602
*1436 FILLER_1_609
*1437 FILLER_1_616
*1438 FILLER_1_623
*1439 FILLER_1_63
*1440 FILLER_1_630
*1441 FILLER_1_637
*1442 FILLER_1_644
*1443 FILLER_1_651
*1444 FILLER_1_658
*1445 FILLER_1_665
*1446 FILLER_1_672
*1447 FILLER_1_679
*1448 FILLER_1_686
*1449 FILLER_1_693
*1450 FILLER_1_7
*1451 FILLER_1_70
*1452 FILLER_1_700
*1453 FILLER_1_707
*1454 FILLER_1_714
*1455 FILLER_1_721
*1456 FILLER_1_728
*1457 FILLER_1_735
*1458 FILLER_1_742
*1459 FILLER_1_749
*1460 FILLER_1_756
*1461 FILLER_1_763
*1462 FILLER_1_77
*1463 FILLER_1_770
*1464 FILLER_1_777
*1465 FILLER_1_784
*1466 FILLER_1_791
*1467 FILLER_1_798
*1468 FILLER_1_805
*1469 FILLER_1_84
*1470 FILLER_1_91
*1471 FILLER_1_98
*1472 FILLER_20_0
*1473 FILLER_20_105
*1474 FILLER_20_112
*1475 FILLER_20_119
*1476 FILLER_20_126
*1477 FILLER_20_133
*1478 FILLER_20_14
*1479 FILLER_20_140
*1480 FILLER_20_147
*1481 FILLER_20_154
*1482 FILLER_20_161
*1483 FILLER_20_168
*1484 FILLER_20_175
*1485 FILLER_20_182
*1486 FILLER_20_189
*1487 FILLER_20_196
*1488 FILLER_20_203
*1489 FILLER_20_21
*1490 FILLER_20_210
*1491 FILLER_20_217
*1492 FILLER_20_224
*1493 FILLER_20_231
*1494 FILLER_20_238
*1495 FILLER_20_245
*1496 FILLER_20_252
*1497 FILLER_20_259
*1498 FILLER_20_266
*1499 FILLER_20_273
*1500 FILLER_20_28
*1501 FILLER_20_280
*1502 FILLER_20_287
*1503 FILLER_20_294
*1504 FILLER_20_301
*1505 FILLER_20_308
*1506 FILLER_20_315
*1507 FILLER_20_322
*1508 FILLER_20_329
*1509 FILLER_20_336
*1510 FILLER_20_343
*1511 FILLER_20_35
*1512 FILLER_20_350
*1513 FILLER_20_357
*1514 FILLER_20_364
*1515 FILLER_20_371
*1516 FILLER_20_378
*1517 FILLER_20_385
*1518 FILLER_20_392
*1519 FILLER_20_399
*1520 FILLER_20_406
*1521 FILLER_20_413
*1522 FILLER_20_42
*1523 FILLER_20_420
*1524 FILLER_20_427
*1525 FILLER_20_434
*1526 FILLER_20_441
*1527 FILLER_20_448
*1528 FILLER_20_455
*1529 FILLER_20_462
*1530 FILLER_20_469
*1531 FILLER_20_476
*1532 FILLER_20_483
*1533 FILLER_20_49
*1534 FILLER_20_490
*1535 FILLER_20_497
*1536 FILLER_20_504
*1537 FILLER_20_511
*1538 FILLER_20_518
*1539 FILLER_20_525
*1540 FILLER_20_532
*1541 FILLER_20_539
*1542 FILLER_20_546
*1543 FILLER_20_553
*1544 FILLER_20_56
*1545 FILLER_20_560
*1546 FILLER_20_567
*1547 FILLER_20_574
*1548 FILLER_20_581
*1549 FILLER_20_588
*1550 FILLER_20_595
*1551 FILLER_20_602
*1552 FILLER_20_609
*1553 FILLER_20_616
*1554 FILLER_20_623
*1555 FILLER_20_63
*1556 FILLER_20_630
*1557 FILLER_20_637
*1558 FILLER_20_644
*1559 FILLER_20_651
*1560 FILLER_20_658
*1561 FILLER_20_665
*1562 FILLER_20_672
*1563 FILLER_20_679
*1564 FILLER_20_686
*1565 FILLER_20_693
*1566 FILLER_20_7
*1567 FILLER_20_70
*1568 FILLER_20_700
*1569 FILLER_20_707
*1570 FILLER_20_714
*1571 FILLER_20_721
*1572 FILLER_20_728
*1573 FILLER_20_735
*1574 FILLER_20_742
*1575 FILLER_20_749
*1576 FILLER_20_756
*1577 FILLER_20_763
*1578 FILLER_20_77
*1579 FILLER_20_770
*1580 FILLER_20_777
*1581 FILLER_20_784
*1582 FILLER_20_791
*1583 FILLER_20_798
*1584 FILLER_20_805
*1585 FILLER_20_84
*1586 FILLER_20_91
*1587 FILLER_20_98
*1588 FILLER_21_0
*1589 FILLER_21_105