* NGSPICE file created from riscv_top.ext - technology: ihp-sg13g2

* Black-box entry subcircuit for sg13g2_decap_8 abstract view
.subckt sg13g2_decap_8 VDD VSS
.ends

* Black-box entry subcircuit for sg13g2_fill_2 abstract view
.subckt sg13g2_fill_2 VDD VSS
.ends

* Black-box entry subcircuit for sg13g2_decap_4 abstract view
.subckt sg13g2_decap_4 VDD VSS
.ends

* Black-box entry subcircuit for sg13g2_a221oi_1 abstract view
.subckt sg13g2_a221oi_1 Y A1 A2 B1 B2 C1 VDD VSS
.ends

* Black-box entry subcircuit for sg13g2_xor2_1 abstract view
.subckt sg13g2_xor2_1 X A B VDD VSS
.ends

* Black-box entry subcircuit for sg13g2_inv_1 abstract view
.subckt sg13g2_inv_1 Y A VDD VSS
.ends

* Black-box entry subcircuit for sg13g2_mux2_1 abstract view
.subckt sg13g2_mux2_1 X A0 A1 S VDD VSS
.ends

* Black-box entry subcircuit for sg13g2_fill_1 abstract view
.subckt sg13g2_fill_1 VDD VSS
.ends

* Black-box entry subcircuit for sg13g2_o21ai_1 abstract view
.subckt sg13g2_o21ai_1 Y A1 A2 B1 VDD VSS
.ends

* Black-box entry subcircuit for sg13g2_a21oi_1 abstract view
.subckt sg13g2_a21oi_1 Y A1 A2 B1 VDD VSS
.ends

* Black-box entry subcircuit for sg13g2_nor2_1 abstract view
.subckt sg13g2_nor2_1 Y A B VDD VSS
.ends

* Black-box entry subcircuit for sg13g2_buf_1 abstract view
.subckt sg13g2_buf_1 X A VDD VSS
.ends

* Black-box entry subcircuit for sg13g2_nand3_1 abstract view
.subckt sg13g2_nand3_1 Y A B C VDD VSS
.ends

* Black-box entry subcircuit for sg13g2_tiehi abstract view
.subckt sg13g2_tiehi L_HI VDD VSS
.ends

* Black-box entry subcircuit for sg13g2_nor3_1 abstract view
.subckt sg13g2_nor3_1 Y A B C VDD VSS
.ends

* Black-box entry subcircuit for sg13g2_nand2_1 abstract view
.subckt sg13g2_nand2_1 Y A B VDD VSS
.ends

* Black-box entry subcircuit for sg13g2_dlygate4sd3_1 abstract view
.subckt sg13g2_dlygate4sd3_1 X A VDD VSS
.ends

* Black-box entry subcircuit for sg13g2_nor4_1 abstract view
.subckt sg13g2_nor4_1 Y A B C D VDD VSS
.ends

* Black-box entry subcircuit for sg13g2_nand2b_1 abstract view
.subckt sg13g2_nand2b_1 Y A_N B VDD VSS
.ends

* Black-box entry subcircuit for sg13g2_and2_1 abstract view
.subckt sg13g2_and2_1 X A B VDD VSS
.ends

* Black-box entry subcircuit for sg13g2_buf_2 abstract view
.subckt sg13g2_buf_2 X A VDD VSS
.ends

* Black-box entry subcircuit for sg13g2_or3_1 abstract view
.subckt sg13g2_or3_1 X A B C VDD VSS
.ends

* Black-box entry subcircuit for sg13g2_nor2b_1 abstract view
.subckt sg13g2_nor2b_1 Y A B_N VDD VSS
.ends

* Black-box entry subcircuit for sg13g2_buf_8 abstract view
.subckt sg13g2_buf_8 X A VDD VSS
.ends

* Black-box entry subcircuit for sg13g2_dfrbpq_1 abstract view
.subckt sg13g2_dfrbpq_1 Q CLK D RESET_B VDD VSS
.ends

* Black-box entry subcircuit for sg13g2_a22oi_1 abstract view
.subckt sg13g2_a22oi_1 Y A1 A2 B1 B2 VDD VSS
.ends

* Black-box entry subcircuit for sg13g2_a21o_1 abstract view
.subckt sg13g2_a21o_1 X A1 A2 B1 VDD VSS
.ends

* Black-box entry subcircuit for sg13g2_and3_1 abstract view
.subckt sg13g2_and3_1 X A B C VDD VSS
.ends

* Black-box entry subcircuit for sg13g2_mux4_1 abstract view
.subckt sg13g2_mux4_1 X A0 A1 A2 A3 S0 S1 VDD VSS
.ends

* Black-box entry subcircuit for sg13g2_xnor2_1 abstract view
.subckt sg13g2_xnor2_1 Y A B VDD VSS
.ends

* Black-box entry subcircuit for sg13g2_nand4_1 abstract view
.subckt sg13g2_nand4_1 Y A B C D VDD VSS
.ends

* Black-box entry subcircuit for sg13g2_or2_1 abstract view
.subckt sg13g2_or2_1 X A B VDD VSS
.ends

* Black-box entry subcircuit for sg13g2_nand3b_1 abstract view
.subckt sg13g2_nand3b_1 Y A_N B C VDD VSS
.ends

* Black-box entry subcircuit for sg13g2_nor3_2 abstract view
.subckt sg13g2_nor3_2 Y A B C VDD VSS
.ends

* Black-box entry subcircuit for sg13g2_and4_1 abstract view
.subckt sg13g2_and4_1 X A B C D VDD VSS
.ends

* Black-box entry subcircuit for sg13g2_buf_4 abstract view
.subckt sg13g2_buf_4 X A VDD VSS
.ends

* Black-box entry subcircuit for sg13g2_antennanp abstract view
.subckt sg13g2_antennanp A VDD VSS
.ends

* Black-box entry subcircuit for sg13g2_or4_1 abstract view
.subckt sg13g2_or4_1 X A B C D VDD VSS
.ends

* Black-box entry subcircuit for sg13g2_buf_16 abstract view
.subckt sg13g2_buf_16 X A VDD VSS
.ends

* Black-box entry subcircuit for sg13g2_nor4_2 abstract view
.subckt sg13g2_nor4_2 Y A B C D VDD VSS
.ends

* Black-box entry subcircuit for sg13g2_inv_2 abstract view
.subckt sg13g2_inv_2 Y A VDD VSS
.ends

* Black-box entry subcircuit for sg13g2_nor2_2 abstract view
.subckt sg13g2_nor2_2 Y A B VDD VSS
.ends

* Black-box entry subcircuit for sg13g2_nand2b_2 abstract view
.subckt sg13g2_nand2b_2 Y A_N B VDD VSS
.ends

* Black-box entry subcircuit for sg13g2_and2_2 abstract view
.subckt sg13g2_and2_2 X A B VDD VSS
.ends

* Black-box entry subcircuit for sg13g2_inv_4 abstract view
.subckt sg13g2_inv_4 Y A VDD VSS
.ends

* Black-box entry subcircuit for sg13g2_a21oi_2 abstract view
.subckt sg13g2_a21oi_2 Y A1 A2 B1 VDD VSS
.ends

* Black-box entry subcircuit for sg13g2_nand2_2 abstract view
.subckt sg13g2_nand2_2 Y A B VDD VSS
.ends

* Black-box entry subcircuit for sg13g2_inv_8 abstract view
.subckt sg13g2_inv_8 Y A VDD VSS
.ends

* Black-box entry subcircuit for sg13g2_a21o_2 abstract view
.subckt sg13g2_a21o_2 X A1 A2 B1 VDD VSS
.ends

.subckt riscv_top I_ae Q_ae VDD VSS analog_en clk ds_I_n_i ds_I_n_o ds_I_oe ds_I_p_i
+ ds_I_p_o ds_Q_n_i ds_Q_n_o ds_Q_oe ds_Q_p_i ds_Q_p_o gpio_in[0] gpio_in[1] gpio_in[2]
+ gpio_in[3] gpio_out[0] gpio_out[1] gpio_out[2] gpio_out[3] lo_I_i lo_I_o lo_I_oe
+ lo_Ix_i lo_Ix_o lo_Q_i lo_Q_o lo_Q_oe lo_Qx_i lo_Qx_o reset rx scl sclk sda_i sda_o
+ sda_oe si so sram_ce tx
XFILLER_171_1371 VDD VSS sg13g2_decap_8
XFILLER_228_813 VDD VSS sg13g2_fill_2
XFILLER_274_418 VDD VSS sg13g2_fill_2
XFILLER_80_1254 VDD VSS sg13g2_decap_4
X_34984_ _34985_/A _33854_/B _34973_/Y _34976_/X _35002_/B _34983_/Y VDD VSS sg13g2_a221oi_1
X_39511_ _39514_/B _42394_/Q _40592_/B VDD VSS sg13g2_xor2_1
XFILLER_45_1396 VDD VSS sg13g2_decap_4
X_36723_ _36723_/Y _36723_/A VDD VSS sg13g2_inv_1
X_33935_ _33935_/X _33999_/B _33822_/X _35119_/S VDD VSS sg13g2_mux2_1
XFILLER_132_1366 VDD VSS sg13g2_fill_2
XFILLER_55_704 VDD VSS sg13g2_decap_8
XFILLER_227_345 VDD VSS sg13g2_fill_1
XFILLER_54_203 VDD VSS sg13g2_fill_1
XFILLER_243_805 VDD VSS sg13g2_fill_2
XFILLER_55_737 VDD VSS sg13g2_decap_8
X_39442_ _39455_/C _39449_/B _39445_/C _39441_/Y VDD VSS sg13g2_o21ai_1
XFILLER_243_816 VDD VSS sg13g2_fill_1
X_36654_ _36655_/B _36650_/A _36652_/X _36653_/X VDD VSS sg13g2_a21oi_1
XFILLER_269_1177 VDD VSS sg13g2_decap_4
X_33866_ _33868_/B _33866_/A _42094_/Q VDD VSS sg13g2_nor2_1
XFILLER_215_529 VDD VSS sg13g2_fill_1
XFILLER_265_1019 VDD VSS sg13g2_decap_8
XFILLER_282_473 VDD VSS sg13g2_fill_2
XFILLER_54_236 VDD VSS sg13g2_decap_4
XFILLER_242_315 VDD VSS sg13g2_decap_8
XFILLER_243_849 VDD VSS sg13g2_decap_8
XFILLER_236_890 VDD VSS sg13g2_fill_2
XFILLER_54_258 VDD VSS sg13g2_decap_8
X_35605_ _35606_/B _35603_/Y _35604_/Y _35605_/S VDD VSS sg13g2_mux2_1
XFILLER_270_646 VDD VSS sg13g2_fill_1
XFILLER_36_962 VDD VSS sg13g2_fill_1
X_39373_ _39373_/Y _38674_/A _39350_/A _39359_/A VDD VSS sg13g2_o21ai_1
X_32817_ _32818_/B _32841_/B _33181_/A VDD VSS sg13g2_nor2_1
X_36585_ _36586_/B _36541_/Y _36584_/Y _36585_/S VDD VSS sg13g2_mux2_1
XFILLER_282_1333 VDD VSS sg13g2_fill_2
XFILLER_35_461 VDD VSS sg13g2_decap_4
X_33797_ _35327_/A _42090_/Q _32796_/A _33796_/Y VDD VSS sg13g2_a21oi_1
XFILLER_251_860 VDD VSS sg13g2_decap_8
X_38324_ _38730_/A _38324_/A VDD VSS sg13g2_buf_1
X_23550_ _23550_/Y _25690_/A _23554_/B _23554_/C VDD VSS sg13g2_nand3_1
X_43315__1889 _43315_/RESET_B VDD VSS sg13g2_tiehi
X_35536_ _35536_/Y _35536_/A _35536_/B _35536_/C VDD VSS sg13g2_nor3_1
X_32748_ _32748_/Y _32746_/Y hold6844/X _32754_/B1 VDD VSS sg13g2_a21oi_1
XFILLER_126_1115 VDD VSS sg13g2_decap_8
XFILLER_196_915 VDD VSS sg13g2_fill_1
XFILLER_74_1047 VDD VSS sg13g2_fill_1
XFILLER_196_926 VDD VSS sg13g2_decap_8
XFILLER_17_1410 VDD VSS sg13g2_fill_2
XFILLER_39_1189 VDD VSS sg13g2_fill_1
X_22501_ _22501_/Y _22499_/Y hold5925/X _22508_/B1 VDD VSS sg13g2_a21oi_1
XFILLER_23_667 VDD VSS sg13g2_fill_2
X_23481_ _23481_/Y _27233_/A _23484_/B VDD VSS sg13g2_nand2_1
Xhold8102 _38553_/A _42368_/Q VDD VSS sg13g2_dlygate4sd3_1
X_38255_ _38259_/B _38253_/X _38254_/X _38178_/X VDD VSS sg13g2_a21oi_1
XFILLER_165_1197 VDD VSS sg13g2_fill_1
XFILLER_51_987 VDD VSS sg13g2_decap_8
Xhold8113 _31421_/A _41685_/Q VDD VSS sg13g2_dlygate4sd3_1
X_35467_ _35469_/A _35497_/A _35467_/B VDD VSS sg13g2_nand2_1
X_32679_ _32679_/Y _32691_/A _41987_/Q VDD VSS sg13g2_nand2_1
XFILLER_11_829 VDD VSS sg13g2_decap_8
Xhold8124 _41898_/D _32357_/Y VDD VSS sg13g2_dlygate4sd3_1
Xhold8135 hold8135/X _42743_/Q VDD VSS sg13g2_dlygate4sd3_1
X_22432_ _22432_/Y hold4944/X _22431_/Y _22174_/X VDD VSS sg13g2_a21oi_1
X_25220_ _42905_/D _25211_/Y _25219_/Y _28499_/B1 VDD VSS sg13g2_a21oi_1
Xhold7401 _36849_/B _36848_/Y VDD VSS sg13g2_dlygate4sd3_1
Xhold8146 _41669_/D _31355_/Y VDD VSS sg13g2_dlygate4sd3_1
X_37206_ _37206_/Y _42226_/Q _37206_/B _37206_/C VDD VSS sg13g2_nor3_1
XFILLER_241_1052 VDD VSS sg13g2_decap_4
Xhold7412 hold7412/X _36639_/Y VDD VSS sg13g2_dlygate4sd3_1
X_34418_ _34418_/Y _34418_/A _34418_/B _34418_/C _34418_/D VDD VSS sg13g2_nor4_1
XFILLER_10_339 VDD VSS sg13g2_decap_8
Xhold8157 _32591_/B _41795_/Q VDD VSS sg13g2_dlygate4sd3_1
X_38186_ _38187_/D _38254_/B _38221_/B VDD VSS sg13g2_nand2b_1
Xhold7423 _44017_/D _30125_/Y VDD VSS sg13g2_dlygate4sd3_1
Xhold8168 _40120_/A _42445_/Q VDD VSS sg13g2_dlygate4sd3_1
X_35398_ _35398_/Y _35397_/B _35561_/A _35397_/A VDD VSS sg13g2_o21ai_1
XFILLER_202_1036 VDD VSS sg13g2_decap_8
Xhold7434 _39624_/B _39623_/Y VDD VSS sg13g2_dlygate4sd3_1
Xhold8179 _42573_/D _41512_/Y VDD VSS sg13g2_dlygate4sd3_1
XFILLER_148_363 VDD VSS sg13g2_decap_4
XFILLER_52_1378 VDD VSS sg13g2_decap_8
Xhold6700 _43761_/D _28729_/Y VDD VSS sg13g2_dlygate4sd3_1
Xhold7445 _42608_/D _22406_/Y VDD VSS sg13g2_dlygate4sd3_1
XFILLER_175_160 VDD VSS sg13g2_fill_1
XFILLER_182_119 VDD VSS sg13g2_decap_4
XFILLER_202_1047 VDD VSS sg13g2_fill_1
X_22363_ _22363_/X _22569_/A _22363_/B VDD VSS sg13g2_xor2_1
X_25151_ _25151_/Y _25201_/A _25151_/B VDD VSS sg13g2_nand2_1
Xhold6711 _42011_/D _32757_/Y VDD VSS sg13g2_dlygate4sd3_1
Xhold7456 _23376_/B _42822_/Q VDD VSS sg13g2_dlygate4sd3_1
X_37137_ _37137_/Y _37136_/Y _37140_/D VDD VSS sg13g2_nand2b_1
Xhold6722 _32553_/B _41783_/Q VDD VSS sg13g2_dlygate4sd3_1
X_34349_ _34352_/B _35123_/A _34349_/B VDD VSS sg13g2_and2_1
Xhold7467 _42439_/D _40044_/Y VDD VSS sg13g2_dlygate4sd3_1
XFILLER_108_238 VDD VSS sg13g2_fill_1
Xhold6733 hold6733/X _41315_/Y VDD VSS sg13g2_dlygate4sd3_1
Xhold7478 _29299_/A _43825_/Q VDD VSS sg13g2_dlygate4sd3_1
XFILLER_163_333 VDD VSS sg13g2_decap_8
X_24102_ _24102_/Y _24622_/A _24112_/A VDD VSS sg13g2_nand2b_1
Xhold6744 _29415_/B _43882_/Q VDD VSS sg13g2_dlygate4sd3_1
Xhold7489 hold7489/X _29055_/Y VDD VSS sg13g2_dlygate4sd3_1
X_25082_ _25139_/A _25082_/A VDD VSS sg13g2_buf_2
Xhold6755 _37543_/A _42250_/Q VDD VSS sg13g2_dlygate4sd3_1
X_43227__2065 _43227_/RESET_B VDD VSS sg13g2_tiehi
XFILLER_184_28 VDD VSS sg13g2_decap_8
X_22294_ _22295_/A _42646_/Q _42645_/Q _22357_/A VDD VSS sg13g2_or3_1
Xhold6766 hold6766/X _43209_/Q VDD VSS sg13g2_dlygate4sd3_1
X_37068_ _37680_/A _37149_/A _37149_/B VDD VSS sg13g2_nand2_1
Xhold6777 _41698_/D _31474_/Y VDD VSS sg13g2_dlygate4sd3_1
XFILLER_117_11 VDD VSS sg13g2_fill_1
X_24033_ _24033_/X _42952_/Q _25141_/C VDD VSS sg13g2_and2_1
X_28910_ _28910_/Y _26617_/A _28909_/A _28858_/A _28910_/B2 _28909_/Y VDD VSS sg13g2_a221oi_1
Xhold6788 hold6788/X _25804_/Y VDD VSS sg13g2_dlygate4sd3_1
Xhold6799 _42932_/D _30680_/Y VDD VSS sg13g2_dlygate4sd3_1
X_36019_ _36019_/Y _36040_/A _36019_/B VDD VSS sg13g2_nand2_1
XFILLER_137_1211 VDD VSS sg13g2_fill_2
XFILLER_190_185 VDD VSS sg13g2_decap_4
X_29890_ _43962_/D _29923_/A _29890_/B VDD VSS sg13g2_nor2_1
XFILLER_278_713 VDD VSS sg13g2_fill_1
XFILLER_215_1408 VDD VSS sg13g2_decap_8
XFILLER_277_201 VDD VSS sg13g2_decap_8
XFILLER_104_444 VDD VSS sg13g2_decap_8
XFILLER_137_1244 VDD VSS sg13g2_decap_8
XFILLER_85_1176 VDD VSS sg13g2_decap_8
X_28841_ _28841_/Y _28841_/A hold8507/X VDD VSS sg13g2_nor2b_1
XFILLER_104_455 VDD VSS sg13g2_fill_2
XFILLER_89_144 VDD VSS sg13g2_decap_8
XFILLER_120_915 VDD VSS sg13g2_fill_1
XFILLER_104_466 VDD VSS sg13g2_fill_1
XFILLER_277_234 VDD VSS sg13g2_decap_4
Xfanout820 _31300_/B1 _31275_/X VDD VSS sg13g2_buf_1
Xfanout831 _30006_/A _30378_/X VDD VSS sg13g2_buf_1
XFILLER_219_802 VDD VSS sg13g2_decap_8
XFILLER_277_267 VDD VSS sg13g2_fill_2
X_28772_ _28802_/B _28808_/B VDD VSS sg13g2_buf_1
Xfanout842 _29923_/A _29933_/A VDD VSS sg13g2_buf_1
XFILLER_237_109 VDD VSS sg13g2_decap_8
X_25984_ _25984_/Y _25984_/A _26106_/B VDD VSS sg13g2_nand2_1
Xfanout853 _28746_/B1 _28721_/X VDD VSS sg13g2_buf_1
XFILLER_259_982 VDD VSS sg13g2_decap_8
Xfanout864 _28310_/B1 _28288_/X VDD VSS sg13g2_buf_1
XFILLER_150_1433 VDD VSS sg13g2_fill_1
XFILLER_252_1192 VDD VSS sg13g2_fill_2
Xfanout875 _28817_/A _28825_/A VDD VSS sg13g2_buf_1
X_27723_ _27723_/X _27824_/B VDD VSS sg13g2_buf_1
X_39709_ _39710_/B _39716_/A _39709_/B VDD VSS sg13g2_nor2_1
XFILLER_274_941 VDD VSS sg13g2_decap_8
X_24935_ _25195_/C _24450_/A _24820_/B _24934_/Y VDD VSS sg13g2_o21ai_1
Xfanout886 _22926_/B _22452_/X VDD VSS sg13g2_buf_1
XFILLER_111_1406 VDD VSS sg13g2_decap_8
XFILLER_219_857 VDD VSS sg13g2_decap_4
Xfanout897 _39006_/B _36300_/B VDD VSS sg13g2_buf_1
X_40981_ _41061_/C _40981_/A VDD VSS sg13g2_buf_8
XFILLER_111_1428 VDD VSS sg13g2_decap_4
XFILLER_274_963 VDD VSS sg13g2_decap_8
XFILLER_46_726 VDD VSS sg13g2_decap_8
XFILLER_85_361 VDD VSS sg13g2_fill_2
XFILLER_18_428 VDD VSS sg13g2_decap_8
XFILLER_46_737 VDD VSS sg13g2_fill_2
XFILLER_85_372 VDD VSS sg13g2_decap_8
X_42720_ _42720_/Q _42723_/CLK _42720_/D _42720_/RESET_B VDD VSS sg13g2_dfrbpq_1
XFILLER_45_214 VDD VSS sg13g2_decap_8
X_27654_ _27654_/Y _27654_/A _27698_/S VDD VSS sg13g2_nand2_1
XFILLER_245_153 VDD VSS sg13g2_fill_1
X_24866_ _24890_/B _24857_/Y _24866_/B VDD VSS sg13g2_nand2b_1
XFILLER_261_613 VDD VSS sg13g2_decap_8
XFILLER_273_473 VDD VSS sg13g2_fill_1
XFILLER_93_47 VDD VSS sg13g2_decap_8
XFILLER_22_1171 VDD VSS sg13g2_decap_8
XFILLER_261_624 VDD VSS sg13g2_fill_1
X_26605_ _26607_/C _43775_/Q _26288_/X _26654_/A _43871_/Q VDD VSS sg13g2_a22oi_1
X_23817_ _23854_/A _29616_/A _23829_/S _23816_/X VDD VSS sg13g2_a21oi_1
X_42651_ _42651_/Q clkload20/A _42651_/D _42651_/RESET_B VDD VSS sg13g2_dfrbpq_1
XFILLER_245_197 VDD VSS sg13g2_decap_4
XFILLER_260_123 VDD VSS sg13g2_fill_2
XFILLER_2_1265 VDD VSS sg13g2_fill_2
XFILLER_57_1201 VDD VSS sg13g2_decap_8
XFILLER_96_1250 VDD VSS sg13g2_fill_1
X_27585_ _27585_/Y _27585_/A _27629_/S VDD VSS sg13g2_nand2_1
XFILLER_165_2 VDD VSS sg13g2_fill_1
XFILLER_73_589 VDD VSS sg13g2_decap_8
X_24797_ _24797_/Y _24800_/A _24264_/A _24862_/B _24760_/A VDD VSS sg13g2_a22oi_1
XFILLER_14_601 VDD VSS sg13g2_fill_1
XFILLER_109_1302 VDD VSS sg13g2_fill_1
XFILLER_199_742 VDD VSS sg13g2_decap_8
XFILLER_261_679 VDD VSS sg13g2_decap_4
X_41602_ _41602_/Q clkload24/A _41602_/D _41602_/RESET_B VDD VSS sg13g2_dfrbpq_1
X_29324_ _29324_/Y _42953_/Q _29349_/B VDD VSS sg13g2_nand2_1
XFILLER_214_551 VDD VSS sg13g2_fill_1
XFILLER_54_792 VDD VSS sg13g2_decap_8
XFILLER_96_1294 VDD VSS sg13g2_fill_2
X_26536_ _26536_/X _26536_/A VDD VSS sg13g2_buf_1
XFILLER_26_494 VDD VSS sg13g2_decap_8
XFILLER_42_943 VDD VSS sg13g2_fill_1
XFILLER_60_239 VDD VSS sg13g2_decap_8
X_23748_ _23748_/X _42968_/Q _23825_/B VDD VSS sg13g2_and2_1
X_44023__3555 _44023_/RESET_B VDD VSS sg13g2_tiehi
X_42582_ _42582_/Q clkload18/A _42582_/D _42582_/RESET_B VDD VSS sg13g2_dfrbpq_1
XFILLER_144_1215 VDD VSS sg13g2_decap_8
XFILLER_242_893 VDD VSS sg13g2_fill_2
XFILLER_144_1226 VDD VSS sg13g2_fill_2
XFILLER_186_403 VDD VSS sg13g2_decap_8
XFILLER_241_370 VDD VSS sg13g2_decap_8
XFILLER_92_1158 VDD VSS sg13g2_fill_1
XFILLER_183_1286 VDD VSS sg13g2_fill_1
XFILLER_186_414 VDD VSS sg13g2_fill_2
X_41533_ _41534_/A _41606_/Q _41533_/B _41533_/C VDD VSS sg13g2_nor3_1
X_29255_ _29255_/X _29251_/Y _29253_/Y _29254_/Y VDD VSS sg13g2_a21o_1
XFILLER_187_948 VDD VSS sg13g2_decap_8
X_26467_ _26468_/B _30394_/A _27936_/A _26482_/C VDD VSS sg13g2_and3_1
X_23679_ _23680_/A _24537_/B _24562_/A VDD VSS sg13g2_and2_1
X_28206_ _28207_/B _29304_/D _28204_/Y _28205_/Y VDD VSS sg13g2_o21ai_1
X_25418_ _42988_/D _26330_/A _25418_/B VDD VSS sg13g2_and2_1
XFILLER_42_51 VDD VSS sg13g2_fill_2
X_41464_ _41464_/Y _41367_/A _41462_/Y _41463_/Y VDD VSS sg13g2_o21ai_1
X_29186_ _29186_/Y _30168_/B VDD VSS sg13g2_inv_1
X_26398_ _26398_/X _26398_/A VDD VSS sg13g2_buf_1
XFILLER_220_0 VDD VSS sg13g2_fill_2
XFILLER_224_1294 VDD VSS sg13g2_fill_2
XFILLER_31_1418 VDD VSS sg13g2_fill_2
XFILLER_139_363 VDD VSS sg13g2_decap_8
XFILLER_155_812 VDD VSS sg13g2_fill_1
X_43203_ _43203_/Q _43588_/CLK _43203_/D _43203_/RESET_B VDD VSS sg13g2_dfrbpq_1
XFILLER_107_1092 VDD VSS sg13g2_fill_1
XFILLER_195_992 VDD VSS sg13g2_decap_8
XFILLER_31_1429 VDD VSS sg13g2_decap_4
X_28137_ _28155_/B _43073_/Q _42892_/Q _28226_/S VDD VSS sg13g2_mux2_1
Xhold8680 hold8680/X _43796_/Q VDD VSS sg13g2_dlygate4sd3_1
X_42327__3842 _42327_/RESET_B VDD VSS sg13g2_tiehi
X_40415_ _40456_/C _40373_/B _40413_/X _40414_/X VDD VSS sg13g2_a21oi_1
XFILLER_167_694 VDD VSS sg13g2_decap_4
X_25349_ _25349_/X hold6305/X hold6531/X hold6520/X hold6358/X _25350_/S0 _25350_/S1
+ VDD VSS sg13g2_mux4_1
Xhold8691 _29169_/A _43956_/Q VDD VSS sg13g2_dlygate4sd3_1
XFILLER_10_873 VDD VSS sg13g2_fill_2
X_41395_ _41395_/Y _41395_/A _41395_/B VDD VSS sg13g2_nor2_1
XFILLER_220_1169 VDD VSS sg13g2_fill_2
XFILLER_5_310 VDD VSS sg13g2_fill_1
XFILLER_177_1024 VDD VSS sg13g2_decap_4
X_43134_ _43134_/Q clkload98/A _43134_/D _43134_/RESET_B VDD VSS sg13g2_dfrbpq_1
X_28068_ _28069_/D _30398_/B _28064_/B _28067_/X VDD VSS sg13g2_o21ai_1
Xhold7990 _23358_/B _23357_/Y VDD VSS sg13g2_dlygate4sd3_1
X_40346_ _40347_/A _40346_/A _40346_/B _40346_/C VDD VSS sg13g2_and3_1
XFILLER_154_355 VDD VSS sg13g2_decap_4
X_42760__2962 _42760_/RESET_B VDD VSS sg13g2_tiehi
XFILLER_181_152 VDD VSS sg13g2_decap_8
XFILLER_6_877 VDD VSS sg13g2_fill_2
XFILLER_114_208 VDD VSS sg13g2_fill_1
XFILLER_154_377 VDD VSS sg13g2_decap_8
XFILLER_182_686 VDD VSS sg13g2_decap_8
XFILLER_54_9 VDD VSS sg13g2_fill_1
X_27019_ _27019_/Y _27019_/A _27019_/B VDD VSS sg13g2_nand2_1
XFILLER_120_1292 VDD VSS sg13g2_fill_1
X_43065_ _43065_/Q _43919_/CLK _43065_/D _43065_/RESET_B VDD VSS sg13g2_dfrbpq_1
X_40277_ _41034_/B _40277_/A VDD VSS sg13g2_buf_1
XFILLER_174_50 VDD VSS sg13g2_decap_4
XFILLER_194_1371 VDD VSS sg13g2_decap_8
XFILLER_5_398 VDD VSS sg13g2_fill_1
XFILLER_218_1043 VDD VSS sg13g2_fill_2
XFILLER_269_735 VDD VSS sg13g2_fill_1
X_42016_ _42016_/Q _42104_/CLK _42016_/D _42016_/RESET_B VDD VSS sg13g2_dfrbpq_1
X_30030_ _30030_/Y fanout189/X _30030_/B VDD VSS sg13g2_nand2b_1
XFILLER_122_230 VDD VSS sg13g2_fill_1
XFILLER_155_1344 VDD VSS sg13g2_decap_8
XFILLER_190_1224 VDD VSS sg13g2_decap_8
XFILLER_218_1065 VDD VSS sg13g2_decap_8
XFILLER_151_1219 VDD VSS sg13g2_fill_1
XFILLER_111_948 VDD VSS sg13g2_fill_2
XFILLER_231_1210 VDD VSS sg13g2_fill_1
XFILLER_256_407 VDD VSS sg13g2_decap_8
XFILLER_256_418 VDD VSS sg13g2_fill_2
XFILLER_288_1019 VDD VSS sg13g2_fill_2
XFILLER_49_531 VDD VSS sg13g2_fill_2
XFILLER_209_312 VDD VSS sg13g2_decap_8
XFILLER_110_469 VDD VSS sg13g2_fill_2
XFILLER_265_941 VDD VSS sg13g2_fill_1
XFILLER_67_81 VDD VSS sg13g2_fill_1
X_31981_ _31990_/C _31981_/A VDD VSS sg13g2_buf_1
X_43967_ _43967_/Q clkload43/A _43967_/D _43967_/RESET_B VDD VSS sg13g2_dfrbpq_1
XFILLER_188_1120 VDD VSS sg13g2_decap_8
XFILLER_190_71 VDD VSS sg13g2_decap_8
XFILLER_209_345 VDD VSS sg13g2_decap_8
XFILLER_237_654 VDD VSS sg13g2_decap_4
XFILLER_265_963 VDD VSS sg13g2_decap_8
XFILLER_231_1287 VDD VSS sg13g2_decap_8
XFILLER_36_203 VDD VSS sg13g2_decap_8
XFILLER_37_726 VDD VSS sg13g2_decap_8
XFILLER_37_737 VDD VSS sg13g2_fill_1
X_33720_ _33721_/B _41977_/Q _33720_/B _33720_/C _33720_/D VDD VSS sg13g2_nor4_1
X_30932_ _30932_/Y _42932_/Q VDD VSS sg13g2_inv_1
XFILLER_114_1096 VDD VSS sg13g2_decap_8
XFILLER_188_1142 VDD VSS sg13g2_decap_8
X_42918_ _42918_/Q clkload40/A _42918_/D _42918_/RESET_B VDD VSS sg13g2_dfrbpq_1
X_43898_ _43898_/Q clkload35/A _43898_/D _43898_/RESET_B VDD VSS sg13g2_dfrbpq_1
XFILLER_97_1047 VDD VSS sg13g2_decap_8
XFILLER_280_944 VDD VSS sg13g2_decap_8
XFILLER_149_1137 VDD VSS sg13g2_decap_4
XFILLER_36_258 VDD VSS sg13g2_decap_8
XFILLER_91_353 VDD VSS sg13g2_decap_8
XFILLER_236_197 VDD VSS sg13g2_decap_8
XFILLER_64_578 VDD VSS sg13g2_fill_2
X_33651_ _34467_/B _33717_/B VDD VSS sg13g2_buf_2
X_30863_ _30863_/Y _30869_/C _30860_/Y _30862_/Y VDD VSS sg13g2_o21ai_1
XFILLER_149_1148 VDD VSS sg13g2_fill_2
X_42849_ _42849_/Q clkload34/A _42849_/D _42849_/RESET_B VDD VSS sg13g2_dfrbpq_1
XFILLER_91_375 VDD VSS sg13g2_decap_8
XFILLER_17_472 VDD VSS sg13g2_decap_8
XFILLER_229_1161 VDD VSS sg13g2_decap_4
X_32602_ _32602_/Y _32602_/A _41963_/Q VDD VSS sg13g2_nand2_1
XFILLER_225_1003 VDD VSS sg13g2_decap_4
X_36370_ _36370_/Y _36370_/A _36568_/B VDD VSS sg13g2_nor2_1
X_33582_ _33582_/Y _41967_/Q VDD VSS sg13g2_inv_1
XFILLER_17_494 VDD VSS sg13g2_decap_8
XFILLER_269_28 VDD VSS sg13g2_fill_2
X_30794_ _30795_/A _30773_/A _30788_/D _30793_/X VDD VSS sg13g2_a21oi_1
XFILLER_205_584 VDD VSS sg13g2_fill_2
XFILLER_32_442 VDD VSS sg13g2_decap_8
X_43895__3412 _43895_/RESET_B VDD VSS sg13g2_tiehi
X_35321_ _35321_/Y _35321_/A _35321_/B _35321_/C _35322_/D VDD VSS sg13g2_nor4_1
X_32533_ _32533_/Y _32633_/A _32533_/B VDD VSS sg13g2_nand2_1
XFILLER_149_116 VDD VSS sg13g2_fill_1
XFILLER_32_453 VDD VSS sg13g2_fill_2
XFILLER_220_543 VDD VSS sg13g2_decap_8
XFILLER_32_475 VDD VSS sg13g2_decap_8
XFILLER_177_447 VDD VSS sg13g2_fill_1
X_38040_ _38040_/Y _38040_/A _38040_/B VDD VSS sg13g2_xnor2_1
X_35252_ _35252_/Y _35250_/Y _35251_/Y _35257_/C VDD VSS sg13g2_o21ai_1
X_32464_ _33876_/A _33854_/A VDD VSS sg13g2_buf_2
XFILLER_125_1170 VDD VSS sg13g2_fill_1
XFILLER_203_1334 VDD VSS sg13g2_decap_8
XFILLER_146_812 VDD VSS sg13g2_decap_8
XFILLER_164_108 VDD VSS sg13g2_decap_8
XFILLER_277_1402 VDD VSS sg13g2_decap_8
X_34203_ _34537_/A _34149_/Y _34201_/Y _34202_/Y VDD VSS sg13g2_a21oi_1
X_31415_ _31415_/Y _31415_/A _31427_/B VDD VSS sg13g2_nand2_1
XFILLER_158_683 VDD VSS sg13g2_fill_2
Xhold6007 _42151_/D _36197_/Y VDD VSS sg13g2_dlygate4sd3_1
X_35183_ _35206_/B _35270_/A _35270_/B _35213_/A VDD VSS sg13g2_a21oi_1
XFILLER_157_171 VDD VSS sg13g2_fill_1
XFILLER_173_620 VDD VSS sg13g2_fill_1
XFILLER_185_480 VDD VSS sg13g2_fill_1
Xhold6018 _42792_/D _23256_/Y VDD VSS sg13g2_dlygate4sd3_1
X_32395_ _32734_/A _32693_/A VDD VSS sg13g2_inv_1
XFILLER_121_1045 VDD VSS sg13g2_fill_2
XFILLER_160_1094 VDD VSS sg13g2_decap_4
Xhold6029 _22457_/B _22453_/Y VDD VSS sg13g2_dlygate4sd3_1
XFILLER_195_1113 VDD VSS sg13g2_decap_8
XFILLER_66_0 VDD VSS sg13g2_decap_8
Xhold5306 _27423_/A _43466_/Q VDD VSS sg13g2_dlygate4sd3_1
X_34134_ _34218_/A _34211_/B _34134_/B _34216_/A VDD VSS sg13g2_nand3_1
XFILLER_118_569 VDD VSS sg13g2_decap_4
Xhold5317 _43517_/D _27536_/Y VDD VSS sg13g2_dlygate4sd3_1
X_43598__3733 _43598_/RESET_B VDD VSS sg13g2_tiehi
X_31346_ _31346_/Y _31693_/B _31356_/B VDD VSS sg13g2_nor2_1
XFILLER_195_1135 VDD VSS sg13g2_decap_8
X_39991_ _39992_/A _39991_/A _39991_/B VDD VSS sg13g2_xnor2_1
XFILLER_69_1149 VDD VSS sg13g2_decap_8
Xhold5328 hold5328/X _28585_/Y VDD VSS sg13g2_dlygate4sd3_1
XFILLER_105_208 VDD VSS sg13g2_decap_8
XFILLER_133_517 VDD VSS sg13g2_decap_8
Xhold5339 _43033_/D _25691_/Y VDD VSS sg13g2_dlygate4sd3_1
Xhold4605 hold4605/X _26585_/Y VDD VSS sg13g2_dlygate4sd3_1
XFILLER_236_1110 VDD VSS sg13g2_decap_8
Xhold4616 _27146_/A _43339_/Q VDD VSS sg13g2_dlygate4sd3_1
X_38942_ _42357_/D _39392_/A _38942_/B VDD VSS sg13g2_nor2_1
X_34065_ _34065_/Y _34047_/A _41979_/Q _34064_/Y VDD VSS sg13g2_o21ai_1
Xhold4627 hold4627/X _27623_/Y VDD VSS sg13g2_dlygate4sd3_1
X_31277_ _31277_/Y _31848_/A _31286_/B VDD VSS sg13g2_nand2_1
XFILLER_236_1121 VDD VSS sg13g2_fill_2
XFILLER_47_1414 VDD VSS sg13g2_decap_8
Xhold4638 _27378_/A _43444_/Q VDD VSS sg13g2_dlygate4sd3_1
XFILLER_114_742 VDD VSS sg13g2_decap_8
Xhold4649 _42692_/D _22806_/Y VDD VSS sg13g2_dlygate4sd3_1
X_33016_ _33016_/Y _33015_/A _33015_/B _33015_/C VDD VSS sg13g2_o21ai_1
XFILLER_236_1154 VDD VSS sg13g2_fill_1
X_30228_ _30228_/Y _30196_/A _30228_/B VDD VSS sg13g2_nand2b_1
X_38873_ _38873_/X _39161_/A _38875_/A _38872_/Y VDD VSS sg13g2_a21o_1
Xfanout105 _31784_/B _31793_/B VDD VSS sg13g2_buf_1
X_43772__2947 _43772_/RESET_B VDD VSS sg13g2_tiehi
XFILLER_113_252 VDD VSS sg13g2_fill_2
XFILLER_248_908 VDD VSS sg13g2_fill_1
Xfanout116 _30994_/B _31002_/B VDD VSS sg13g2_buf_1
XFILLER_141_572 VDD VSS sg13g2_decap_8
Xfanout127 _31857_/B _31863_/B VDD VSS sg13g2_buf_1
X_42953__2668 _42953_/RESET_B VDD VSS sg13g2_tiehi
X_42380__3736 _42380_/RESET_B VDD VSS sg13g2_tiehi
XFILLER_101_414 VDD VSS sg13g2_decap_8
XFILLER_114_797 VDD VSS sg13g2_decap_4
XFILLER_232_1029 VDD VSS sg13g2_decap_8
Xfanout138 _31257_/B _31260_/B VDD VSS sg13g2_buf_1
X_37824_ _37824_/Y _37819_/B _37244_/X _37793_/Y VDD VSS sg13g2_o21ai_1
XFILLER_113_285 VDD VSS sg13g2_fill_2
XFILLER_275_716 VDD VSS sg13g2_fill_1
XFILLER_87_648 VDD VSS sg13g2_decap_8
Xfanout149 _30185_/B _30193_/B VDD VSS sg13g2_buf_1
X_30159_ _44026_/D _30155_/Y _30157_/Y _30181_/B1 VDD VSS sg13g2_a21oi_1
XFILLER_45_1171 VDD VSS sg13g2_decap_8
XFILLER_228_621 VDD VSS sg13g2_fill_1
XFILLER_256_930 VDD VSS sg13g2_decap_8
XFILLER_68_862 VDD VSS sg13g2_decap_4
X_43833__2766 _43833_/RESET_B VDD VSS sg13g2_tiehi
X_43815__2832 _43815_/RESET_B VDD VSS sg13g2_tiehi
X_42579__3385 _42579_/RESET_B VDD VSS sg13g2_tiehi
XFILLER_210_1305 VDD VSS sg13g2_fill_1
XFILLER_41_1024 VDD VSS sg13g2_decap_8
X_37755_ _37755_/Y _37759_/A _37755_/B VDD VSS sg13g2_xnor2_1
X_22981_ _22981_/X _31141_/B _43896_/Q _31343_/B _43897_/Q _22983_/S1 _22983_/S0 VDD
+ VSS sg13g2_mux4_1
X_34967_ _34967_/X _34919_/B _34966_/X _34967_/S VDD VSS sg13g2_mux2_1
XFILLER_67_361 VDD VSS sg13g2_fill_1
XFILLER_80_1095 VDD VSS sg13g2_decap_4
XFILLER_95_681 VDD VSS sg13g2_decap_8
XFILLER_228_665 VDD VSS sg13g2_fill_2
XFILLER_256_974 VDD VSS sg13g2_decap_8
XFILLER_28_737 VDD VSS sg13g2_decap_8
X_24720_ _24721_/B _24383_/X _24694_/X _24719_/Y VDD VSS sg13g2_a21oi_1
X_36706_ _36706_/Y _36704_/A _36702_/A _36694_/Y VDD VSS sg13g2_o21ai_1
X_33918_ _33919_/A _33914_/Y _33917_/Y _33099_/B VDD VSS sg13g2_o21ai_1
XFILLER_27_225 VDD VSS sg13g2_fill_1
XFILLER_67_394 VDD VSS sg13g2_fill_2
XFILLER_82_320 VDD VSS sg13g2_fill_1
X_37686_ _37686_/X _37689_/A _37686_/B VDD VSS sg13g2_xor2_1
XFILLER_27_236 VDD VSS sg13g2_decap_8
X_34898_ _34898_/X _34990_/B _34892_/X _34909_/B _35037_/B _35037_/A _34968_/S VDD
+ VSS sg13g2_mux4_1
XFILLER_216_849 VDD VSS sg13g2_fill_2
XFILLER_271_933 VDD VSS sg13g2_decap_8
XFILLER_227_186 VDD VSS sg13g2_decap_8
XFILLER_242_112 VDD VSS sg13g2_decap_4
XFILLER_243_635 VDD VSS sg13g2_decap_8
XFILLER_76_1109 VDD VSS sg13g2_decap_8
X_41576__2712 _41576_/RESET_B VDD VSS sg13g2_tiehi
X_39425_ _39426_/B _39441_/A _39425_/B VDD VSS sg13g2_nand2_1
X_24651_ _24651_/Y _24785_/A _24651_/B VDD VSS sg13g2_nor2_1
X_36637_ _36638_/B _36636_/B _36636_/C _36636_/Y VDD VSS sg13g2_o21ai_1
X_33849_ _33849_/Y _41942_/Q _34415_/C _32809_/X VDD VSS sg13g2_o21ai_1
XFILLER_70_515 VDD VSS sg13g2_decap_8
XFILLER_231_819 VDD VSS sg13g2_decap_4
XFILLER_271_988 VDD VSS sg13g2_decap_4
X_23602_ _29553_/A _30465_/B VDD VSS sg13g2_inv_1
XFILLER_242_167 VDD VSS sg13g2_fill_2
X_27370_ _27370_/Y _27370_/A _27370_/B VDD VSS sg13g2_nand2_1
X_39356_ _39356_/Y _41125_/B _39356_/B VDD VSS sg13g2_nor2_1
X_24582_ _24582_/Y _24582_/A _24582_/B VDD VSS sg13g2_nor2_1
X_36568_ _36587_/B _36568_/A _36568_/B VDD VSS sg13g2_nor2_1
XFILLER_23_431 VDD VSS sg13g2_decap_8
XFILLER_70_559 VDD VSS sg13g2_fill_1
XFILLER_35_291 VDD VSS sg13g2_decap_8
X_26321_ _26324_/B _43789_/Q _26656_/A _26650_/A _43690_/Q VDD VSS sg13g2_a22oi_1
X_38307_ _38307_/Y _38303_/A _38307_/B VDD VSS sg13g2_nand2b_1
X_23533_ _23533_/Y _43024_/D _23545_/B VDD VSS sg13g2_nand2_1
X_35519_ _35519_/Y _35521_/B _35518_/Y _33589_/Y VDD VSS sg13g2_o21ai_1
XFILLER_24_987 VDD VSS sg13g2_decap_4
X_39287_ _39288_/D _39287_/A _39287_/B _39293_/B VDD VSS sg13g2_or3_1
X_36499_ _36499_/Y _36522_/A _36499_/B VDD VSS sg13g2_xnor2_1
X_42871__2741 _42871_/RESET_B VDD VSS sg13g2_tiehi
XFILLER_196_767 VDD VSS sg13g2_fill_2
X_29040_ _29040_/Y _29302_/D _29059_/B VDD VSS sg13g2_nand2_1
XFILLER_156_609 VDD VSS sg13g2_decap_8
X_26252_ _26252_/X _26310_/A VDD VSS sg13g2_buf_1
X_38238_ _38247_/A _38260_/A _38238_/B VDD VSS sg13g2_nand2_1
X_23464_ _23464_/Y _23462_/Y _23463_/Y _23479_/B1 VDD VSS sg13g2_a21oi_1
X_43069__2411 _43069_/RESET_B VDD VSS sg13g2_tiehi
XFILLER_13_1104 VDD VSS sg13g2_decap_4
Xhold7220 _37681_/A _42262_/Q VDD VSS sg13g2_dlygate4sd3_1
XFILLER_183_428 VDD VSS sg13g2_decap_8
X_25203_ _25203_/Y _25203_/A _25203_/B _25203_/C VDD VSS sg13g2_nor3_1
Xhold7231 _38313_/B _38312_/Y VDD VSS sg13g2_dlygate4sd3_1
XFILLER_109_514 VDD VSS sg13g2_decap_8
XFILLER_12_21 VDD VSS sg13g2_decap_4
XFILLER_149_683 VDD VSS sg13g2_decap_8
XFILLER_52_1175 VDD VSS sg13g2_fill_1
X_22415_ _22423_/B _22408_/Y _22412_/Y _22414_/Y _22855_/C VDD VSS sg13g2_a22oi_1
X_26183_ _43088_/D _26185_/A _26183_/B VDD VSS sg13g2_nor2_1
Xhold7242 _41624_/D _31187_/Y VDD VSS sg13g2_dlygate4sd3_1
X_38169_ _38170_/B _38191_/B _38169_/B VDD VSS sg13g2_xnor2_1
XFILLER_13_1137 VDD VSS sg13g2_decap_8
X_23395_ _23396_/B _28271_/A _28271_/B _28275_/B VDD VSS sg13g2_nor3_1
Xhold7253 _43824_/D _28984_/Y VDD VSS sg13g2_dlygate4sd3_1
XFILLER_12_43 VDD VSS sg13g2_decap_8
XFILLER_137_856 VDD VSS sg13g2_decap_8
XFILLER_176_491 VDD VSS sg13g2_decap_8
Xhold7264 hold7264/X _31199_/Y VDD VSS sg13g2_dlygate4sd3_1
XFILLER_104_1276 VDD VSS sg13g2_decap_8
XFILLER_164_642 VDD VSS sg13g2_fill_2
Xhold6530 hold6530/X _43557_/Q VDD VSS sg13g2_dlygate4sd3_1
Xhold7275 _43830_/D _29002_/Y VDD VSS sg13g2_dlygate4sd3_1
X_40200_ _40872_/C _40200_/A _40200_/B VDD VSS sg13g2_and2_1