* NGSPICE file created from counter_top.ext - technology: ihp-sg13g2

* Black-box entry subcircuit for sg13g2_decap_8 abstract view
.subckt sg13g2_decap_8 VDD VSS
.ends

* Black-box entry subcircuit for sg13g2_tiehi abstract view
.subckt sg13g2_tiehi L_HI VDD VSS
.ends

* Black-box entry subcircuit for sg13g2_xnor2_1 abstract view
.subckt sg13g2_xnor2_1 Y A B VDD VSS
.ends

* Black-box entry subcircuit for sg13g2_nand3_1 abstract view
.subckt sg13g2_nand3_1 Y A B C VDD VSS
.ends

* Black-box entry subcircuit for sg13g2_dlygate4sd3_1 abstract view
.subckt sg13g2_dlygate4sd3_1 X A VDD VSS
.ends

* Black-box entry subcircuit for sg13g2_fill_1 abstract view
.subckt sg13g2_fill_1 VDD VSS
.ends

* Black-box entry subcircuit for sg13g2_decap_4 abstract view
.subckt sg13g2_decap_4 VDD VSS
.ends

* Black-box entry subcircuit for sg13g2_buf_1 abstract view
.subckt sg13g2_buf_1 X A VDD VSS
.ends

* Black-box entry subcircuit for sg13g2_nand2_1 abstract view
.subckt sg13g2_nand2_1 Y A B VDD VSS
.ends

* Black-box entry subcircuit for sg13g2_a21oi_1 abstract view
.subckt sg13g2_a21oi_1 Y A1 A2 B1 VDD VSS
.ends

* Black-box entry subcircuit for sg13g2_and2_1 abstract view
.subckt sg13g2_and2_1 X A B VDD VSS
.ends

* Black-box entry subcircuit for sg13g2_fill_2 abstract view
.subckt sg13g2_fill_2 VDD VSS
.ends

* Black-box entry subcircuit for sg13g2_or3_1 abstract view
.subckt sg13g2_or3_1 X A B C VDD VSS
.ends

* Black-box entry subcircuit for sg13g2_xor2_1 abstract view
.subckt sg13g2_xor2_1 X A B VDD VSS
.ends

* Black-box entry subcircuit for sg13g2_o21ai_1 abstract view
.subckt sg13g2_o21ai_1 Y A1 A2 B1 VDD VSS
.ends

* Black-box entry subcircuit for sg13g2_mux2_1 abstract view
.subckt sg13g2_mux2_1 X A0 A1 S VDD VSS
.ends

* Black-box entry subcircuit for sg13g2_nand2_2 abstract view
.subckt sg13g2_nand2_2 Y A B VDD VSS
.ends

* Black-box entry subcircuit for sg13g2_nor4_2 abstract view
.subckt sg13g2_nor4_2 Y A B C D VDD VSS
.ends

* Black-box entry subcircuit for sg13g2_buf_4 abstract view
.subckt sg13g2_buf_4 X A VDD VSS
.ends

* Black-box entry subcircuit for sg13g2_inv_1 abstract view
.subckt sg13g2_inv_1 Y A VDD VSS
.ends

* Black-box entry subcircuit for sg13g2_nor2_1 abstract view
.subckt sg13g2_nor2_1 Y A B VDD VSS
.ends

* Black-box entry subcircuit for sg13g2_nand4_1 abstract view
.subckt sg13g2_nand4_1 Y A B C D VDD VSS
.ends

* Black-box entry subcircuit for sg13g2_buf_16 abstract view
.subckt sg13g2_buf_16 X A VDD VSS
.ends

* Black-box entry subcircuit for sg13g2_dfrbpq_1 abstract view
.subckt sg13g2_dfrbpq_1 Q CLK D RESET_B VDD VSS
.ends

* Black-box entry subcircuit for sg13g2_nor2b_1 abstract view
.subckt sg13g2_nor2b_1 Y A B_N VDD VSS
.ends

* Black-box entry subcircuit for sg13g2_nor3_1 abstract view
.subckt sg13g2_nor3_1 Y A B C VDD VSS
.ends

.subckt counter_top VDD VSS clock_i counter_value_o[0] counter_value_o[1] counter_value_o[2]
+ counter_value_o[3] counter_value_o[4] counter_value_o[5] counter_value_o[6] counter_value_o[7]
+ enable_i reset_n_i
XFILLER_7_7 VDD VSS sg13g2_decap_8
XFILLER_13_133 VDD VSS sg13g2_decap_8
XFILLER_9_137 VDD VSS sg13g2_decap_8
XFILLER_3_56 VDD VSS sg13g2_decap_8
XFILLER_5_343 VDD VSS sg13g2_decap_8
X_72__16 _72__16/L_HI VDD VSS sg13g2_tiehi
XFILLER_12_98 VDD VSS sg13g2_decap_8
XFILLER_12_21 VDD VSS sg13g2_decap_8
XFILLER_10_147 VDD VSS sg13g2_decap_8
XFILLER_2_357 VDD VSS sg13g2_decap_8
XFILLER_17_291 VDD VSS sg13g2_decap_8
X_66_ _66_/Y _66_/A _66_/B VDD VSS sg13g2_xnor2_1
XFILLER_5_140 VDD VSS sg13g2_decap_8
XFILLER_14_283 VDD VSS sg13g2_decap_8
XFILLER_9_88 VDD VSS sg13g2_decap_8
XFILLER_9_11 VDD VSS sg13g2_decap_8
XFILLER_0_35 VDD VSS sg13g2_decap_8
XFILLER_2_154 VDD VSS sg13g2_decap_8
X_49_ _51_/C _75_/Q _77_/Q _76_/Q VDD VSS sg13g2_nand3_1
XFILLER_11_231 VDD VSS sg13g2_decap_8
XFILLER_7_224 VDD VSS sg13g2_decap_8
Xhold30 _72_/D _62_/X VDD VSS sg13g2_dlygate4sd3_1
XFILLER_16_345 VDD VSS sg13g2_decap_8
XFILLER_4_238 VDD VSS sg13g2_decap_8
XFILLER_6_56 VDD VSS sg13g2_decap_8
XFILLER_15_54 VDD VSS sg13g2_fill_1
XFILLER_15_21 VDD VSS sg13g2_decap_4
XFILLER_9_319 VDD VSS sg13g2_decap_8
Xoutput7 counter_value_o[4] _77_/Q VDD VSS sg13g2_buf_1
XFILLER_8_385 VDD VSS sg13g2_decap_8
XFILLER_0_252 VDD VSS sg13g2_decap_8
XFILLER_11_0 VDD VSS sg13g2_decap_8
XFILLER_10_329 VDD VSS sg13g2_decap_8
XFILLER_13_112 VDD VSS sg13g2_decap_8
XFILLER_9_116 VDD VSS sg13g2_decap_8
XFILLER_3_35 VDD VSS sg13g2_decap_8
XFILLER_5_322 VDD VSS sg13g2_decap_8
XFILLER_8_182 VDD VSS sg13g2_decap_8
XFILLER_12_77 VDD VSS sg13g2_decap_8
XFILLER_10_126 VDD VSS sg13g2_decap_8
XFILLER_2_336 VDD VSS sg13g2_decap_8
XFILLER_6_119 VDD VSS sg13g2_decap_8
X_65_ _66_/B _65_/A _73_/Q VDD VSS sg13g2_nand2_1
XFILLER_1_391 VDD VSS sg13g2_fill_1
XFILLER_5_196 VDD VSS sg13g2_decap_8
XFILLER_15_207 VDD VSS sg13g2_decap_8
XFILLER_14_240 VDD VSS sg13g2_fill_1
XFILLER_9_67 VDD VSS sg13g2_decap_8
XFILLER_0_14 VDD VSS sg13g2_decap_8
XFILLER_2_133 VDD VSS sg13g2_decap_8
X_48_ _48_/Y _48_/A1 _47_/X _42_/A VDD VSS sg13g2_a21oi_1
XFILLER_11_287 VDD VSS sg13g2_decap_8
XFILLER_11_210 VDD VSS sg13g2_decap_8
XFILLER_7_203 VDD VSS sg13g2_decap_8
XFILLER_15_7 VDD VSS sg13g2_decap_8
XFILLER_6_280 VDD VSS sg13g2_decap_8
Xhold20 _52_/A1 _50_/Y VDD VSS sg13g2_dlygate4sd3_1
Xhold31 _54_/A _71_/Q VDD VSS sg13g2_dlygate4sd3_1
XFILLER_4_217 VDD VSS sg13g2_decap_8
XFILLER_16_324 VDD VSS sg13g2_decap_8
XFILLER_3_294 VDD VSS sg13g2_decap_8
XFILLER_6_35 VDD VSS sg13g2_decap_8
XFILLER_13_349 VDD VSS sg13g2_decap_8
Xoutput10 counter_value_o[7] _72_/Q VDD VSS sg13g2_buf_1
Xoutput8 counter_value_o[5] _70_/Q VDD VSS sg13g2_buf_1
XFILLER_12_371 VDD VSS sg13g2_decap_8
XFILLER_0_231 VDD VSS sg13g2_decap_8
XFILLER_10_308 VDD VSS sg13g2_decap_8
XFILLER_8_364 VDD VSS sg13g2_decap_8
XFILLER_5_301 VDD VSS sg13g2_decap_8
XFILLER_5_378 VDD VSS sg13g2_decap_8
XFILLER_8_161 VDD VSS sg13g2_decap_8
XFILLER_3_14 VDD VSS sg13g2_decap_8
XFILLER_12_56 VDD VSS sg13g2_decap_8
XFILLER_10_105 VDD VSS sg13g2_decap_8
XFILLER_2_315 VDD VSS sg13g2_decap_8
X_64_ _73_/D _69_/A _64_/B VDD VSS sg13g2_and2_1
XFILLER_5_175 VDD VSS sg13g2_decap_8
XFILLER_17_271 VDD VSS sg13g2_fill_2
XFILLER_14_230 VDD VSS sg13g2_fill_2
XFILLER_2_112 VDD VSS sg13g2_decap_8
XFILLER_2_189 VDD VSS sg13g2_decap_8
X_47_ _47_/X _55_/B _68_/B _61_/C VDD VSS sg13g2_or3_1
XFILLER_9_46 VDD VSS sg13g2_decap_8
XFILLER_11_266 VDD VSS sg13g2_decap_8
XFILLER_7_259 VDD VSS sg13g2_decap_8
XFILLER_16_303 VDD VSS sg13g2_decap_8
Xhold32 _71_/D _57_/X VDD VSS sg13g2_dlygate4sd3_1
Xhold21 _70_/D _52_/Y VDD VSS sg13g2_dlygate4sd3_1
XFILLER_3_273 VDD VSS sg13g2_decap_8
XFILLER_6_14 VDD VSS sg13g2_decap_8
XFILLER_15_391 VDD VSS sg13g2_fill_1
Xoutput9 counter_value_o[6] _71_/Q VDD VSS sg13g2_buf_1
XFILLER_16_100 VDD VSS sg13g2_fill_2
XFILLER_13_328 VDD VSS sg13g2_decap_8
XFILLER_0_287 VDD VSS sg13g2_decap_8
XFILLER_0_210 VDD VSS sg13g2_decap_8
XFILLER_12_350 VDD VSS sg13g2_decap_8
XFILLER_8_343 VDD VSS sg13g2_decap_8
XFILLER_13_147 VDD VSS sg13g2_decap_8
XFILLER_8_140 VDD VSS sg13g2_decap_8
XFILLER_5_357 VDD VSS sg13g2_decap_8
XFILLER_12_35 VDD VSS sg13g2_decap_8
XFILLER_5_7 VDD VSS sg13g2_decap_8
XFILLER_5_154 VDD VSS sg13g2_decap_8
X_63_ _64_/B _65_/A _63_/B VDD VSS sg13g2_xor2_1
XFILLER_1_382 VDD VSS sg13g2_decap_8
XFILLER_4_91 VDD VSS sg13g2_decap_8
XFILLER_0_49 VDD VSS sg13g2_decap_8
XFILLER_2_168 VDD VSS sg13g2_decap_8
XFILLER_14_297 VDD VSS sg13g2_decap_8
XFILLER_14_253 VDD VSS sg13g2_decap_4
X_46_ _46_/Y _68_/B _61_/C _55_/B VDD VSS sg13g2_o21ai_1
XFILLER_9_25 VDD VSS sg13g2_decap_8
XFILLER_11_245 VDD VSS sg13g2_decap_8
XFILLER_7_238 VDD VSS sg13g2_decap_8
XFILLER_1_81 VDD VSS sg13g2_decap_8
XFILLER_16_359 VDD VSS sg13g2_decap_8
Xhold33 _63_/B _73_/Q VDD VSS sg13g2_dlygate4sd3_1
Xhold22 _55_/B _77_/Q VDD VSS sg13g2_dlygate4sd3_1
XFILLER_3_252 VDD VSS sg13g2_decap_8
XFILLER_15_370 VDD VSS sg13g2_decap_8
XFILLER_13_307 VDD VSS sg13g2_decap_8
XFILLER_0_266 VDD VSS sg13g2_decap_8
XFILLER_8_322 VDD VSS sg13g2_decap_8
XFILLER_7_91 VDD VSS sg13g2_decap_8
XFILLER_13_126 VDD VSS sg13g2_decap_8
XFILLER_3_49 VDD VSS sg13g2_decap_8
XFILLER_5_336 VDD VSS sg13g2_decap_8
XFILLER_12_14 VDD VSS sg13g2_decap_8
XFILLER_8_196 VDD VSS sg13g2_decap_8
XFILLER_5_133 VDD VSS sg13g2_decap_8
XFILLER_17_284 VDD VSS sg13g2_decap_8
X_62_ _62_/X _58_/X _59_/Y _62_/S VDD VSS sg13g2_mux2_1
XFILLER_1_361 VDD VSS sg13g2_decap_8
XFILLER_2_147 VDD VSS sg13g2_decap_8
XFILLER_4_70 VDD VSS sg13g2_decap_8
XFILLER_14_276 VDD VSS sg13g2_decap_8
XFILLER_14_232 VDD VSS sg13g2_fill_1
XFILLER_0_28 VDD VSS sg13g2_decap_8
X_45_ _61_/C _75_/Q _45_/B VDD VSS sg13g2_nand2_2
XFILLER_9_291 VDD VSS sg13g2_decap_8
XFILLER_11_224 VDD VSS sg13g2_decap_8
XFILLER_7_217 VDD VSS sg13g2_decap_8
XFILLER_1_60 VDD VSS sg13g2_decap_8
XFILLER_6_294 VDD VSS sg13g2_decap_8
XFILLER_16_338 VDD VSS sg13g2_decap_8
Xhold34 _68_/A _75_/Q VDD VSS sg13g2_dlygate4sd3_1
Xhold23 _48_/A1 _46_/Y VDD VSS sg13g2_dlygate4sd3_1
XFILLER_13_7 VDD VSS sg13g2_decap_8
XFILLER_10_91 VDD VSS sg13g2_decap_8
XFILLER_3_231 VDD VSS sg13g2_decap_8
XFILLER_6_49 VDD VSS sg13g2_decap_8
XFILLER_15_47 VDD VSS sg13g2_decap_8
XFILLER_15_14 VDD VSS sg13g2_fill_2
XFILLER_12_385 VDD VSS sg13g2_decap_8
XFILLER_8_378 VDD VSS sg13g2_decap_8
XFILLER_8_301 VDD VSS sg13g2_decap_8
XFILLER_0_245 VDD VSS sg13g2_decap_8
XFILLER_7_70 VDD VSS sg13g2_decap_8
XFILLER_13_105 VDD VSS sg13g2_decap_8
XFILLER_9_109 VDD VSS sg13g2_decap_8
XFILLER_3_28 VDD VSS sg13g2_decap_8
XFILLER_5_315 VDD VSS sg13g2_decap_8
XFILLER_12_182 VDD VSS sg13g2_decap_8
XFILLER_8_175 VDD VSS sg13g2_decap_8
XFILLER_10_119 VDD VSS sg13g2_decap_8
XFILLER_2_329 VDD VSS sg13g2_decap_8
X_61_ _62_/S _61_/A _68_/B _61_/C _61_/D VDD VSS sg13g2_nor4_2
XFILLER_1_340 VDD VSS sg13g2_decap_8
XFILLER_5_112 VDD VSS sg13g2_decap_8
XFILLER_5_189 VDD VSS sg13g2_decap_8
XFILLER_14_211 VDD VSS sg13g2_decap_8
XFILLER_13_91 VDD VSS sg13g2_decap_8
XFILLER_2_126 VDD VSS sg13g2_decap_8
X_44_ _68_/B _44_/A VDD VSS sg13g2_buf_4
XFILLER_9_270 VDD VSS sg13g2_decap_8
XFILLER_11_203 VDD VSS sg13g2_decap_8
XFILLER_10_280 VDD VSS sg13g2_decap_8
XFILLER_6_273 VDD VSS sg13g2_decap_8
XFILLER_16_317 VDD VSS sg13g2_decap_8
Xhold24 _77_/D _48_/Y VDD VSS sg13g2_dlygate4sd3_1
XFILLER_10_70 VDD VSS sg13g2_decap_8
XFILLER_3_210 VDD VSS sg13g2_decap_8
XFILLER_3_287 VDD VSS sg13g2_decap_8
XFILLER_6_28 VDD VSS sg13g2_decap_8
XFILLER_16_147 VDD VSS sg13g2_fill_2
XFILLER_12_364 VDD VSS sg13g2_decap_8
XFILLER_8_357 VDD VSS sg13g2_decap_8
XFILLER_0_224 VDD VSS sg13g2_decap_8
XFILLER_12_161 VDD VSS sg13g2_decap_8
XFILLER_8_154 VDD VSS sg13g2_decap_8
XFILLER_4_371 VDD VSS sg13g2_decap_8
XFILLER_12_49 VDD VSS sg13g2_decap_8
XFILLER_2_308 VDD VSS sg13g2_decap_8
X_60_ _61_/A _71_/Q VDD VSS sg13g2_inv_1
XFILLER_5_168 VDD VSS sg13g2_decap_8
XFILLER_13_70 VDD VSS sg13g2_decap_8
XFILLER_9_39 VDD VSS sg13g2_decap_8
XFILLER_2_105 VDD VSS sg13g2_decap_8
XFILLER_3_7 VDD VSS sg13g2_decap_8
X_43_ _44_/A _65_/A _66_/A _63_/B VDD VSS sg13g2_nand3_1
XFILLER_1_193 VDD VSS sg13g2_decap_8
XFILLER_11_259 VDD VSS sg13g2_decap_8
XFILLER_1_4 VDD VSS sg13g2_decap_8
XFILLER_6_252 VDD VSS sg13g2_decap_8
Xhold25 _45_/B _76_/Q VDD VSS sg13g2_dlygate4sd3_1
XFILLER_1_95 VDD VSS sg13g2_decap_8
XFILLER_3_266 VDD VSS sg13g2_decap_8
XFILLER_15_384 VDD VSS sg13g2_decap_8
XFILLER_12_343 VDD VSS sg13g2_decap_8
XFILLER_8_336 VDD VSS sg13g2_decap_8
XFILLER_0_203 VDD VSS sg13g2_decap_8
XFILLER_12_140 VDD VSS sg13g2_decap_8
XFILLER_8_133 VDD VSS sg13g2_decap_8
XFILLER_4_350 VDD VSS sg13g2_decap_8
XFILLER_12_28 VDD VSS sg13g2_decap_8
XFILLER_17_210 VDD VSS sg13g2_decap_8
XFILLER_1_375 VDD VSS sg13g2_decap_8
XFILLER_5_147 VDD VSS sg13g2_decap_8
XFILLER_17_298 VDD VSS sg13g2_decap_8
XFILLER_17_232 VDD VSS sg13g2_decap_8
XFILLER_4_84 VDD VSS sg13g2_decap_8
XFILLER_14_257 VDD VSS sg13g2_fill_1
XFILLER_14_246 VDD VSS sg13g2_decap_8
XFILLER_9_18 VDD VSS sg13g2_decap_8
X_42_ _76_/D _42_/A _42_/B VDD VSS sg13g2_nor2_1
XFILLER_1_172 VDD VSS sg13g2_decap_8
XFILLER_11_238 VDD VSS sg13g2_decap_8
XFILLER_6_231 VDD VSS sg13g2_decap_8
XFILLER_1_74 VDD VSS sg13g2_decap_8
Xhold26 _42_/B _41_/X VDD VSS sg13g2_dlygate4sd3_1
XFILLER_3_245 VDD VSS sg13g2_decap_8
XFILLER_15_363 VDD VSS sg13g2_decap_8
XFILLER_0_259 VDD VSS sg13g2_decap_8
XFILLER_12_322 VDD VSS sg13g2_decap_8
XFILLER_11_7 VDD VSS sg13g2_decap_8
XFILLER_8_315 VDD VSS sg13g2_decap_8
XFILLER_13_119 VDD VSS sg13g2_decap_8
XFILLER_7_84 VDD VSS sg13g2_decap_8
XFILLER_16_93 VDD VSS sg13g2_decap_8
XFILLER_12_196 VDD VSS sg13g2_decap_8
XFILLER_8_189 VDD VSS sg13g2_decap_8
XFILLER_8_112 VDD VSS sg13g2_decap_8
XFILLER_5_329 VDD VSS sg13g2_decap_8
XFILLER_1_354 VDD VSS sg13g2_decap_8
XFILLER_5_126 VDD VSS sg13g2_decap_8
XFILLER_17_277 VDD VSS sg13g2_decap_8
XFILLER_4_63 VDD VSS sg13g2_decap_8
X_41_ _41_/X _45_/B _41_/B VDD VSS sg13g2_xor2_1
XFILLER_1_151 VDD VSS sg13g2_decap_8
XFILLER_11_217 VDD VSS sg13g2_decap_8
XFILLER_9_284 VDD VSS sg13g2_decap_8
XFILLER_6_210 VDD VSS sg13g2_decap_8
XFILLER_10_294 VDD VSS sg13g2_decap_8
XFILLER_1_53 VDD VSS sg13g2_decap_8
XFILLER_6_287 VDD VSS sg13g2_decap_8
Xhold27 _66_/A _74_/Q VDD VSS sg13g2_dlygate4sd3_1
XFILLER_3_224 VDD VSS sg13g2_decap_8
XFILLER_15_342 VDD VSS sg13g2_decap_8
XFILLER_10_84 VDD VSS sg13g2_decap_8
XFILLER_15_29 VDD VSS sg13g2_fill_2
XFILLER_0_238 VDD VSS sg13g2_decap_8
XFILLER_12_378 VDD VSS sg13g2_decap_8
XFILLER_12_301 VDD VSS sg13g2_decap_8
XFILLER_7_371 VDD VSS sg13g2_decap_8
XFILLER_7_63 VDD VSS sg13g2_decap_8
XFILLER_5_308 VDD VSS sg13g2_decap_8
XFILLER_12_175 VDD VSS sg13g2_decap_8
XFILLER_8_168 VDD VSS sg13g2_decap_8
XFILLER_4_385 VDD VSS sg13g2_decap_8
XFILLER_5_105 VDD VSS sg13g2_decap_8
XFILLER_17_267 VDD VSS sg13g2_decap_4
XFILLER_1_333 VDD VSS sg13g2_decap_8
XFILLER_4_42 VDD VSS sg13g2_decap_8
XFILLER_4_182 VDD VSS sg13g2_decap_8
XFILLER_2_119 VDD VSS sg13g2_decap_8
X_40_ _41_/B _75_/Q _65_/A _74_/Q _73_/Q VDD VSS sg13g2_nand4_1
XFILLER_14_204 VDD VSS sg13g2_decap_8
XFILLER_13_84 VDD VSS sg13g2_decap_8
XFILLER_8_0 VDD VSS sg13g2_decap_8
XFILLER_1_130 VDD VSS sg13g2_decap_8
XFILLER_9_263 VDD VSS sg13g2_decap_8
XFILLER_10_273 VDD VSS sg13g2_decap_8
XFILLER_1_32 VDD VSS sg13g2_decap_8
XFILLER_6_266 VDD VSS sg13g2_decap_8
Xhold28 _67_/B _66_/Y VDD VSS sg13g2_dlygate4sd3_1
XFILLER_15_321 VDD VSS sg13g2_decap_8
XFILLER_10_63 VDD VSS sg13g2_decap_8
XFILLER_3_203 VDD VSS sg13g2_decap_8
XFILLER_0_217 VDD VSS sg13g2_decap_8
XFILLER_2_280 VDD VSS sg13g2_decap_8
XFILLER_12_357 VDD VSS sg13g2_decap_8
XFILLER_7_350 VDD VSS sg13g2_decap_8
XFILLER_7_42 VDD VSS sg13g2_decap_8
XFILLER_12_154 VDD VSS sg13g2_decap_8
XFILLER_8_147 VDD VSS sg13g2_decap_8
XFILLER_4_364 VDD VSS sg13g2_decap_8
XFILLER_17_246 VDD VSS sg13g2_decap_4
XFILLER_1_312 VDD VSS sg13g2_decap_8
XFILLER_1_389 VDD VSS sg13g2_fill_2
XFILLER_4_21 VDD VSS sg13g2_decap_8
XFILLER_4_98 VDD VSS sg13g2_decap_8
XFILLER_4_161 VDD VSS sg13g2_decap_8
XFILLER_14_238 VDD VSS sg13g2_fill_2
XFILLER_13_63 VDD VSS sg13g2_decap_8
XFILLER_13_293 VDD VSS sg13g2_decap_8
XFILLER_9_242 VDD VSS sg13g2_decap_8
XFILLER_1_186 VDD VSS sg13g2_decap_8
XFILLER_10_252 VDD VSS sg13g2_decap_8
XFILLER_1_88 VDD VSS sg13g2_decap_8
XFILLER_1_11 VDD VSS sg13g2_decap_8
XFILLER_6_245 VDD VSS sg13g2_decap_8
Xhold29 _59_/A _72_/Q VDD VSS sg13g2_dlygate4sd3_1
XFILLER_15_377 VDD VSS sg13g2_decap_8
XFILLER_15_300 VDD VSS sg13g2_decap_8
XFILLER_10_42 VDD VSS sg13g2_decap_8
XFILLER_3_259 VDD VSS sg13g2_decap_8
XFILLER_12_336 VDD VSS sg13g2_decap_8
XFILLER_8_329 VDD VSS sg13g2_decap_8
XFILLER_7_98 VDD VSS sg13g2_decap_8
XFILLER_7_21 VDD VSS sg13g2_decap_8
Xclkbuf_1_1__f_clock_i _77_/CLK clkbuf_0_clock_i/X VDD VSS sg13g2_buf_16
XFILLER_16_0 VDD VSS sg13g2_decap_8
XFILLER_12_133 VDD VSS sg13g2_decap_8
XFILLER_8_126 VDD VSS sg13g2_decap_8
XFILLER_4_343 VDD VSS sg13g2_decap_8
XFILLER_17_225 VDD VSS sg13g2_decap_8
XFILLER_17_203 VDD VSS sg13g2_decap_8
XFILLER_1_368 VDD VSS sg13g2_decap_8
XFILLER_4_77 VDD VSS sg13g2_decap_8
XFILLER_4_140 VDD VSS sg13g2_decap_8
XFILLER_13_42 VDD VSS sg13g2_decap_8
XFILLER_13_272 VDD VSS sg13g2_decap_8
XFILLER_9_298 VDD VSS sg13g2_decap_8
XFILLER_9_221 VDD VSS sg13g2_decap_8
XFILLER_1_165 VDD VSS sg13g2_decap_8
XFILLER_10_231 VDD VSS sg13g2_decap_8
XFILLER_6_224 VDD VSS sg13g2_decap_8
Xhold19 _55_/A _70_/Q VDD VSS sg13g2_dlygate4sd3_1
XFILLER_1_67 VDD VSS sg13g2_decap_8
XFILLER_10_98 VDD VSS sg13g2_decap_8
XFILLER_10_21 VDD VSS sg13g2_decap_8
XFILLER_3_238 VDD VSS sg13g2_decap_8
XFILLER_15_356 VDD VSS sg13g2_decap_8
XFILLER_12_315 VDD VSS sg13g2_decap_8
XFILLER_8_308 VDD VSS sg13g2_decap_8
XFILLER_7_77 VDD VSS sg13g2_decap_8
XFILLER_7_385 VDD VSS sg13g2_decap_8
XFILLER_12_189 VDD VSS sg13g2_decap_8
XFILLER_12_112 VDD VSS sg13g2_decap_8
XFILLER_8_105 VDD VSS sg13g2_decap_8
XFILLER_4_322 VDD VSS sg13g2_decap_8
XFILLER_7_182 VDD VSS sg13g2_decap_8
XFILLER_1_347 VDD VSS sg13g2_decap_8
XFILLER_5_119 VDD VSS sg13g2_decap_8
XFILLER_4_56 VDD VSS sg13g2_decap_8
XFILLER_4_196 VDD VSS sg13g2_decap_8
XFILLER_14_218 VDD VSS sg13g2_decap_4
XFILLER_13_251 VDD VSS sg13g2_decap_8
XFILLER_13_98 VDD VSS sg13g2_decap_8
XFILLER_13_21 VDD VSS sg13g2_decap_8
XFILLER_9_277 VDD VSS sg13g2_decap_8
XFILLER_9_200 VDD VSS sg13g2_decap_8
XFILLER_1_144 VDD VSS sg13g2_decap_8
XFILLER_10_287 VDD VSS sg13g2_decap_8
XFILLER_10_210 VDD VSS sg13g2_decap_8
XFILLER_6_0 VDD VSS sg13g2_decap_8
XFILLER_6_203 VDD VSS sg13g2_decap_8
XFILLER_1_46 VDD VSS sg13g2_decap_8
XFILLER_5_280 VDD VSS sg13g2_decap_8
XFILLER_10_77 VDD VSS sg13g2_decap_8
Xinput1 _65_/A enable_i VDD VSS sg13g2_buf_1
XFILLER_3_217 VDD VSS sg13g2_decap_8
XFILLER_15_335 VDD VSS sg13g2_decap_8
XFILLER_2_294 VDD VSS sg13g2_decap_8
XFILLER_11_371 VDD VSS sg13g2_decap_8
XFILLER_7_364 VDD VSS sg13g2_decap_8
XFILLER_7_56 VDD VSS sg13g2_decap_8
XFILLER_16_54 VDD VSS sg13g2_decap_4
XFILLER_12_168 VDD VSS sg13g2_decap_8
XFILLER_4_301 VDD VSS sg13g2_decap_8
X_71__18 _71__18/L_HI VDD VSS sg13g2_tiehi
XFILLER_7_161 VDD VSS sg13g2_decap_8
XFILLER_4_378 VDD VSS sg13g2_decap_8
XFILLER_1_326 VDD VSS sg13g2_decap_8
XFILLER_4_35 VDD VSS sg13g2_decap_8
XFILLER_4_175 VDD VSS sg13g2_decap_8
XFILLER_16_282 VDD VSS sg13g2_decap_8
XFILLER_13_77 VDD VSS sg13g2_decap_8
XFILLER_1_123 VDD VSS sg13g2_decap_8
XFILLER_13_230 VDD VSS sg13g2_decap_8
XFILLER_9_256 VDD VSS sg13g2_decap_8
XFILLER_10_266 VDD VSS sg13g2_decap_8
XFILLER_1_25 VDD VSS sg13g2_decap_8
XFILLER_6_259 VDD VSS sg13g2_decap_8
XFILLER_10_56 VDD VSS sg13g2_decap_8
Xinput2 _69_/A reset_n_i VDD VSS sg13g2_buf_1
XFILLER_15_314 VDD VSS sg13g2_decap_8
XFILLER_2_273 VDD VSS sg13g2_decap_8
XFILLER_11_350 VDD VSS sg13g2_decap_8
XFILLER_7_343 VDD VSS sg13g2_decap_8
XFILLER_7_35 VDD VSS sg13g2_decap_8
XFILLER_16_11 VDD VSS sg13g2_fill_1
XFILLER_12_147 VDD VSS sg13g2_decap_8
XFILLER_7_140 VDD VSS sg13g2_decap_8
XFILLER_4_357 VDD VSS sg13g2_decap_8
XFILLER_14_0 VDD VSS sg13g2_decap_8
XFILLER_17_239 VDD VSS sg13g2_decap_8
XFILLER_17_217 VDD VSS sg13g2_decap_4
XFILLER_1_305 VDD VSS sg13g2_decap_8
XFILLER_4_14 VDD VSS sg13g2_decap_8
XFILLER_4_154 VDD VSS sg13g2_decap_8
Xclkbuf_1_0__f_clock_i _76_/CLK clkbuf_0_clock_i/X VDD VSS sg13g2_buf_16
XFILLER_0_371 VDD VSS sg13g2_decap_8
XFILLER_13_56 VDD VSS sg13g2_decap_8
XFILLER_1_179 VDD VSS sg13g2_decap_8
XFILLER_1_102 VDD VSS sg13g2_decap_8
XFILLER_13_286 VDD VSS sg13g2_decap_8
XFILLER_9_235 VDD VSS sg13g2_decap_8
XFILLER_10_245 VDD VSS sg13g2_decap_8
XFILLER_6_238 VDD VSS sg13g2_decap_8
XFILLER_10_35 VDD VSS sg13g2_decap_8
XFILLER_14_381 VDD VSS sg13g2_decap_8
XFILLER_2_252 VDD VSS sg13g2_decap_8
X_77__14 _77__14/L_HI VDD VSS sg13g2_tiehi
XFILLER_12_329 VDD VSS sg13g2_decap_8
XFILLER_2_91 VDD VSS sg13g2_decap_8
XFILLER_7_322 VDD VSS sg13g2_decap_8
XFILLER_7_14 VDD VSS sg13g2_decap_8
X_74__17 _74__17/L_HI VDD VSS sg13g2_tiehi
XFILLER_12_126 VDD VSS sg13g2_decap_8
XFILLER_8_119 VDD VSS sg13g2_decap_8
XFILLER_4_336 VDD VSS sg13g2_decap_8
XFILLER_7_196 VDD VSS sg13g2_decap_8
XFILLER_16_240 VDD VSS sg13g2_fill_1
XFILLER_0_350 VDD VSS sg13g2_decap_8
XFILLER_4_133 VDD VSS sg13g2_decap_8
XFILLER_13_35 VDD VSS sg13g2_decap_8
XFILLER_1_158 VDD VSS sg13g2_decap_8
XFILLER_13_265 VDD VSS sg13g2_decap_8
XFILLER_9_214 VDD VSS sg13g2_decap_8
XFILLER_8_280 VDD VSS sg13g2_decap_8
XFILLER_5_91 VDD VSS sg13g2_decap_8
XFILLER_10_224 VDD VSS sg13g2_decap_8
XFILLER_6_217 VDD VSS sg13g2_decap_8
X_77_ _77_/Q _77_/CLK _77_/D _77__14/L_HI VDD VSS sg13g2_dfrbpq_1
XFILLER_5_294 VDD VSS sg13g2_decap_8
XFILLER_15_349 VDD VSS sg13g2_decap_8
XFILLER_10_14 VDD VSS sg13g2_decap_8
XFILLER_14_360 VDD VSS sg13g2_decap_8
XFILLER_2_231 VDD VSS sg13g2_decap_8
XFILLER_4_0 VDD VSS sg13g2_decap_8
XFILLER_12_308 VDD VSS sg13g2_decap_8
XFILLER_2_70 VDD VSS sg13g2_decap_8
XFILLER_15_179 VDD VSS sg13g2_fill_1
XFILLER_11_385 VDD VSS sg13g2_decap_8
XFILLER_7_378 VDD VSS sg13g2_decap_8
XFILLER_7_301 VDD VSS sg13g2_decap_8
XFILLER_12_105 VDD VSS sg13g2_decap_8
XFILLER_4_315 VDD VSS sg13g2_decap_8
XFILLER_11_182 VDD VSS sg13g2_decap_8
XFILLER_7_175 VDD VSS sg13g2_decap_8
XFILLER_8_91 VDD VSS sg13g2_decap_8
XFILLER_16_296 VDD VSS sg13g2_decap_8
XFILLER_16_230 VDD VSS sg13g2_fill_2
XFILLER_4_49 VDD VSS sg13g2_decap_8
XFILLER_4_112 VDD VSS sg13g2_decap_8
XFILLER_4_189 VDD VSS sg13g2_decap_8
XFILLER_13_14 VDD VSS sg13g2_decap_8
XFILLER_13_244 VDD VSS sg13g2_decap_8
XFILLER_8_7 VDD VSS sg13g2_decap_8
XFILLER_1_137 VDD VSS sg13g2_decap_8
XFILLER_5_70 VDD VSS sg13g2_decap_8
XFILLER_10_203 VDD VSS sg13g2_decap_8
X_76_ _76_/Q _76_/CLK _76_/D _76__15/L_HI VDD VSS sg13g2_dfrbpq_1
XFILLER_1_39 VDD VSS sg13g2_decap_8
XFILLER_5_273 VDD VSS sg13g2_decap_8
XFILLER_15_328 VDD VSS sg13g2_decap_8
XFILLER_2_210 VDD VSS sg13g2_decap_8
XFILLER_2_287 VDD VSS sg13g2_decap_8
X_59_ _59_/Y _59_/A _69_/A VDD VSS sg13g2_nor2b_1
XFILLER_11_364 VDD VSS sg13g2_decap_8
XFILLER_7_357 VDD VSS sg13g2_decap_8
XFILLER_7_49 VDD VSS sg13g2_decap_8
XFILLER_11_91 VDD VSS sg13g2_decap_8
XFILLER_16_58 VDD VSS sg13g2_fill_2
XFILLER_16_47 VDD VSS sg13g2_decap_8
XFILLER_11_161 VDD VSS sg13g2_decap_8
XFILLER_7_154 VDD VSS sg13g2_decap_8
XFILLER_3_371 VDD VSS sg13g2_decap_8
XFILLER_8_70 VDD VSS sg13g2_decap_8
XFILLER_1_319 VDD VSS sg13g2_decap_8
XFILLER_0_385 VDD VSS sg13g2_decap_8
XFILLER_4_28 VDD VSS sg13g2_decap_8
XFILLER_4_168 VDD VSS sg13g2_decap_8
XFILLER_12_0 VDD VSS sg13g2_decap_8
XFILLER_13_223 VDD VSS sg13g2_decap_8
XFILLER_9_249 VDD VSS sg13g2_decap_8
XFILLER_1_116 VDD VSS sg13g2_decap_8
XFILLER_0_182 VDD VSS sg13g2_decap_8
XFILLER_10_259 VDD VSS sg13g2_decap_8
XFILLER_1_18 VDD VSS sg13g2_decap_8
XFILLER_5_252 VDD VSS sg13g2_decap_8
XFILLER_17_381 VDD VSS sg13g2_decap_8
X_75_ _75_/Q _76_/CLK _75_/D _75__11/L_HI VDD VSS sg13g2_dfrbpq_1
XFILLER_10_49 VDD VSS sg13g2_decap_8
XFILLER_15_307 VDD VSS sg13g2_decap_8
XFILLER_2_266 VDD VSS sg13g2_decap_8
X_58_ _58_/X _59_/A _69_/A VDD VSS sg13g2_and2_1
XFILLER_16_7 VDD VSS sg13g2_decap_4
XFILLER_11_343 VDD VSS sg13g2_decap_8
XFILLER_11_70 VDD VSS sg13g2_decap_8
XFILLER_7_336 VDD VSS sg13g2_decap_8
XFILLER_7_28 VDD VSS sg13g2_decap_8
XFILLER_11_140 VDD VSS sg13g2_decap_8
XFILLER_7_133 VDD VSS sg13g2_decap_8
XFILLER_3_350 VDD VSS sg13g2_decap_8
X_70__12 _70__12/L_HI VDD VSS sg13g2_tiehi
XFILLER_0_364 VDD VSS sg13g2_decap_8
XFILLER_4_147 VDD VSS sg13g2_decap_8
XFILLER_17_80 VDD VSS sg13g2_fill_2
XFILLER_16_232 VDD VSS sg13g2_fill_1
XFILLER_13_202 VDD VSS sg13g2_decap_8
XFILLER_13_49 VDD VSS sg13g2_decap_8
XFILLER_13_279 VDD VSS sg13g2_decap_8
XFILLER_9_228 VDD VSS sg13g2_decap_8
XFILLER_0_161 VDD VSS sg13g2_decap_8
XFILLER_10_238 VDD VSS sg13g2_decap_8
XFILLER_8_294 VDD VSS sg13g2_decap_8
XFILLER_14_92 VDD VSS sg13g2_decap_4
XFILLER_5_231 VDD VSS sg13g2_decap_8
XFILLER_17_371 VDD VSS sg13g2_decap_4
X_74_ _74_/Q _76_/CLK _74_/D _74__17/L_HI VDD VSS sg13g2_dfrbpq_1
XFILLER_10_28 VDD VSS sg13g2_decap_8
XFILLER_2_245 VDD VSS sg13g2_decap_8
XFILLER_14_374 VDD VSS sg13g2_decap_8
XFILLER_2_84 VDD VSS sg13g2_decap_8
X_57_ _57_/X _53_/X _54_/Y _57_/S VDD VSS sg13g2_mux2_1
XFILLER_11_322 VDD VSS sg13g2_decap_8
XFILLER_7_315 VDD VSS sg13g2_decap_8
XFILLER_2_0 VDD VSS sg13g2_decap_8
XFILLER_12_119 VDD VSS sg13g2_decap_8
XFILLER_11_196 VDD VSS sg13g2_decap_8
XFILLER_7_112 VDD VSS sg13g2_decap_8
XFILLER_4_329 VDD VSS sg13g2_decap_8
XFILLER_7_189 VDD VSS sg13g2_decap_8
XFILLER_4_126 VDD VSS sg13g2_decap_8
XFILLER_0_343 VDD VSS sg13g2_decap_8
XFILLER_13_28 VDD VSS sg13g2_decap_8
XFILLER_13_258 VDD VSS sg13g2_decap_8
XFILLER_9_207 VDD VSS sg13g2_decap_8
XFILLER_0_140 VDD VSS sg13g2_decap_8
XFILLER_12_280 VDD VSS sg13g2_decap_8
XFILLER_8_273 VDD VSS sg13g2_decap_8
XFILLER_5_84 VDD VSS sg13g2_decap_8
XFILLER_14_60 VDD VSS sg13g2_fill_1
XFILLER_10_217 VDD VSS sg13g2_decap_8
XFILLER_6_7 VDD VSS sg13g2_decap_8
XFILLER_17_350 VDD VSS sg13g2_decap_8
X_73_ _73_/Q _76_/CLK _73_/D _73__13/L_HI VDD VSS sg13g2_dfrbpq_1
XFILLER_5_210 VDD VSS sg13g2_decap_8
XFILLER_5_287 VDD VSS sg13g2_decap_8
XFILLER_14_353 VDD VSS sg13g2_decap_8
XFILLER_2_224 VDD VSS sg13g2_decap_8
XFILLER_17_180 VDD VSS sg13g2_fill_1
X_56_ _57_/S _68_/B _61_/C _61_/D VDD VSS sg13g2_nor3_1
XFILLER_2_63 VDD VSS sg13g2_decap_8
XFILLER_11_378 VDD VSS sg13g2_decap_8
XFILLER_11_301 VDD VSS sg13g2_decap_8
X_39_ _42_/A _69_/A VDD VSS sg13g2_inv_1
XFILLER_6_371 VDD VSS sg13g2_decap_8
XFILLER_4_308 VDD VSS sg13g2_decap_8
XFILLER_11_175 VDD VSS sg13g2_decap_8
XFILLER_7_168 VDD VSS sg13g2_decap_8
XFILLER_3_385 VDD VSS sg13g2_decap_8
XFILLER_8_84 VDD VSS sg13g2_decap_8
XFILLER_4_105 VDD VSS sg13g2_decap_8
XFILLER_16_289 VDD VSS sg13g2_decap_8
XFILLER_16_223 VDD VSS sg13g2_decap_8
XFILLER_0_322 VDD VSS sg13g2_decap_8
XFILLER_3_182 VDD VSS sg13g2_decap_8
XFILLER_13_237 VDD VSS sg13g2_decap_8
XFILLER_0_196 VDD VSS sg13g2_decap_8
XFILLER_10_0 VDD VSS sg13g2_decap_8
XFILLER_8_252 VDD VSS sg13g2_decap_8
XFILLER_5_63 VDD VSS sg13g2_decap_8
X_72_ _72_/Q _77_/CLK _72_/D _72__16/L_HI VDD VSS sg13g2_dfrbpq_1
XFILLER_14_83 VDD VSS sg13g2_fill_1
XFILLER_5_266 VDD VSS sg13g2_decap_8
XFILLER_14_332 VDD VSS sg13g2_decap_8
XFILLER_2_203 VDD VSS sg13g2_decap_8
X_55_ _61_/D _55_/A _55_/B VDD VSS sg13g2_nand2_1
XFILLER_9_391 VDD VSS sg13g2_fill_1
XFILLER_1_291 VDD VSS sg13g2_decap_8
XFILLER_2_42 VDD VSS sg13g2_decap_8
XFILLER_11_357 VDD VSS sg13g2_decap_8
XFILLER_11_84 VDD VSS sg13g2_decap_8
XFILLER_6_350 VDD VSS sg13g2_decap_8
XFILLER_14_7 VDD VSS sg13g2_decap_8
XFILLER_11_154 VDD VSS sg13g2_decap_8
XFILLER_7_147 VDD VSS sg13g2_decap_8
XFILLER_3_364 VDD VSS sg13g2_decap_8
XFILLER_8_63 VDD VSS sg13g2_decap_8
XFILLER_17_94 VDD VSS sg13g2_decap_8
XFILLER_0_301 VDD VSS sg13g2_decap_8
XFILLER_0_378 VDD VSS sg13g2_decap_8
XFILLER_3_161 VDD VSS sg13g2_decap_8
XFILLER_13_216 VDD VSS sg13g2_decap_8
XFILLER_1_109 VDD VSS sg13g2_decap_8
XFILLER_8_231 VDD VSS sg13g2_decap_8
XFILLER_0_175 VDD VSS sg13g2_decap_8
XFILLER_5_42 VDD VSS sg13g2_decap_8
X_71_ _71_/Q _77_/CLK _71_/D _71__18/L_HI VDD VSS sg13g2_dfrbpq_1
XFILLER_5_245 VDD VSS sg13g2_decap_8
XFILLER_14_388 VDD VSS sg13g2_decap_4
XFILLER_14_311 VDD VSS sg13g2_decap_8
XFILLER_2_259 VDD VSS sg13g2_decap_8
X_54_ _54_/Y _54_/A _69_/A VDD VSS sg13g2_nor2b_1
XFILLER_1_270 VDD VSS sg13g2_decap_8
XFILLER_2_21 VDD VSS sg13g2_decap_8
XFILLER_2_98 VDD VSS sg13g2_decap_8
XFILLER_11_336 VDD VSS sg13g2_decap_8
XFILLER_7_329 VDD VSS sg13g2_decap_8
XFILLER_11_63 VDD VSS sg13g2_decap_8
X_73__13 _73__13/L_HI VDD VSS sg13g2_tiehi
XFILLER_11_133 VDD VSS sg13g2_decap_8
XFILLER_7_126 VDD VSS sg13g2_decap_8
XFILLER_0_0 VDD VSS sg13g2_decap_8
XFILLER_3_343 VDD VSS sg13g2_decap_8
XFILLER_8_42 VDD VSS sg13g2_decap_8
XFILLER_0_357 VDD VSS sg13g2_decap_8
XFILLER_3_140 VDD VSS sg13g2_decap_8
XFILLER_12_294 VDD VSS sg13g2_decap_8
XFILLER_8_287 VDD VSS sg13g2_decap_8
XFILLER_8_210 VDD VSS sg13g2_decap_8
XFILLER_0_154 VDD VSS sg13g2_decap_8
XFILLER_5_21 VDD VSS sg13g2_decap_8
XFILLER_5_98 VDD VSS sg13g2_decap_8
XFILLER_14_96 VDD VSS sg13g2_fill_2
XFILLER_5_224 VDD VSS sg13g2_decap_8
XFILLER_17_375 VDD VSS sg13g2_fill_2
XFILLER_17_364 VDD VSS sg13g2_decap_8
X_70_ _70_/Q _77_/CLK _70_/D _70__12/L_HI VDD VSS sg13g2_dfrbpq_1
XFILLER_2_238 VDD VSS sg13g2_decap_8
XFILLER_4_7 VDD VSS sg13g2_decap_8
X_53_ _53_/X _54_/A _69_/A VDD VSS sg13g2_and2_1
XFILLER_14_367 VDD VSS sg13g2_decap_8
XFILLER_2_77 VDD VSS sg13g2_decap_8
XFILLER_11_315 VDD VSS sg13g2_decap_8
XFILLER_9_382 VDD VSS sg13g2_decap_8
XFILLER_11_42 VDD VSS sg13g2_decap_8
XFILLER_7_308 VDD VSS sg13g2_decap_8
XFILLER_6_385 VDD VSS sg13g2_decap_8
XFILLER_11_189 VDD VSS sg13g2_decap_8
XFILLER_11_112 VDD VSS sg13g2_decap_8
XFILLER_7_105 VDD VSS sg13g2_decap_8
XFILLER_3_322 VDD VSS sg13g2_decap_8
XFILLER_8_98 VDD VSS sg13g2_decap_8
XFILLER_8_21 VDD VSS sg13g2_decap_8
XFILLER_6_182 VDD VSS sg13g2_decap_8
XFILLER_0_336 VDD VSS sg13g2_decap_8
XFILLER_4_119 VDD VSS sg13g2_decap_8
XFILLER_17_52 VDD VSS sg13g2_decap_8
XFILLER_3_196 VDD VSS sg13g2_decap_8
XFILLER_0_133 VDD VSS sg13g2_decap_8
XFILLER_12_273 VDD VSS sg13g2_decap_8
XFILLER_8_266 VDD VSS sg13g2_decap_8
XFILLER_5_77 VDD VSS sg13g2_decap_8
XFILLER_14_42 VDD VSS sg13g2_decap_8
XFILLER_5_203 VDD VSS sg13g2_decap_8
XFILLER_17_343 VDD VSS sg13g2_decap_8
XFILLER_4_280 VDD VSS sg13g2_decap_8
XFILLER_2_217 VDD VSS sg13g2_decap_8
X_52_ _52_/Y _52_/A1 _51_/X _42_/A VDD VSS sg13g2_a21oi_1
XFILLER_14_346 VDD VSS sg13g2_decap_8
XFILLER_2_56 VDD VSS sg13g2_decap_8
XFILLER_17_162 VDD VSS sg13g2_decap_4
XFILLER_9_361 VDD VSS sg13g2_decap_8
XFILLER_14_154 VDD VSS sg13g2_fill_1
XFILLER_14_110 VDD VSS sg13g2_decap_8
XFILLER_11_98 VDD VSS sg13g2_decap_8
XFILLER_11_21 VDD VSS sg13g2_decap_8
XFILLER_10_371 VDD VSS sg13g2_decap_8
XFILLER_6_364 VDD VSS sg13g2_decap_8
XFILLER_11_168 VDD VSS sg13g2_decap_8
XFILLER_8_77 VDD VSS sg13g2_decap_8
XFILLER_3_301 VDD VSS sg13g2_decap_8
XFILLER_3_378 VDD VSS sg13g2_decap_8
XFILLER_6_161 VDD VSS sg13g2_decap_8
XFILLER_0_315 VDD VSS sg13g2_decap_8
XFILLER_17_31 VDD VSS sg13g2_decap_8
XFILLER_16_238 VDD VSS sg13g2_fill_2
XFILLER_16_216 VDD VSS sg13g2_decap_8
XFILLER_3_175 VDD VSS sg13g2_decap_8
XFILLER_15_293 VDD VSS sg13g2_decap_8
XFILLER_12_7 VDD VSS sg13g2_decap_8
XFILLER_0_189 VDD VSS sg13g2_decap_8
XFILLER_0_112 VDD VSS sg13g2_decap_8