* NGSPICE file created from chip_top.ext - technology: ihp-sg13g2

* Black-box entry subcircuit for sg13g2_decap_8 abstract view
.subckt sg13g2_decap_8 VDD VSS
.ends

* Black-box entry subcircuit for sg13g2_Filler2000 abstract view
.subckt sg13g2_Filler2000 iovdd iovss vdd vss
.ends

* Black-box entry subcircuit for sg13g2_decap_4 abstract view
.subckt sg13g2_decap_4 VDD VSS
.ends

* Black-box entry subcircuit for sg13g2_tielo abstract view
.subckt sg13g2_tielo L_LO VDD VSS
.ends

* Black-box entry subcircuit for sg13g2_Filler1000 abstract view
.subckt sg13g2_Filler1000 iovdd iovss vdd vss
.ends

* Black-box entry subcircuit for sg13g2_xnor2_1 abstract view
.subckt sg13g2_xnor2_1 Y A B VDD VSS
.ends

* Black-box entry subcircuit for sg13g2_fill_2 abstract view
.subckt sg13g2_fill_2 VDD VSS
.ends

* Black-box entry subcircuit for sg13g2_fill_1 abstract view
.subckt sg13g2_fill_1 VDD VSS
.ends

* Black-box entry subcircuit for sg13g2_Filler4000 abstract view
.subckt sg13g2_Filler4000 iovdd iovss vdd vss
.ends

* Black-box entry subcircuit for sg13g2_tiehi abstract view
.subckt sg13g2_tiehi L_HI VDD VSS
.ends

* Black-box entry subcircuit for sg13g2_dlygate4sd3_1 abstract view
.subckt sg13g2_dlygate4sd3_1 X A VDD VSS
.ends

* Black-box entry subcircuit for sg13g2_IOPadOut30mA abstract view
.subckt sg13g2_IOPadOut30mA c2p iovdd iovss pad vdd vss
.ends

* Black-box entry subcircuit for sg13g2_inv_1 abstract view
.subckt sg13g2_inv_1 Y A VDD VSS
.ends

* Black-box entry subcircuit for sg13g2_IOPadVss abstract view
.subckt sg13g2_IOPadVss iovdd iovss vdd vss
.ends

* Black-box entry subcircuit for sg13g2_ip__bondpad_70x70 abstract view
.subckt sg13g2_ip__bondpad_70x70 pad
.ends

* Black-box entry subcircuit for inverter_top abstract view
.subckt inverter_top vin1 vin2 vin3 vin4 vout1 vout2 vout3 vout4 VSS VDD
.ends

* Black-box entry subcircuit for sg13g2_Corner abstract view
.subckt sg13g2_Corner iovdd iovss vdd vss
.ends

* Black-box entry subcircuit for sg13g2_Filler400 abstract view
.subckt sg13g2_Filler400 iovdd iovss vdd vss
.ends

* Black-box entry subcircuit for sg13g2_xor2_1 abstract view
.subckt sg13g2_xor2_1 X A B VDD VSS
.ends

* Black-box entry subcircuit for sg13g2_IOPadIOVss abstract view
.subckt sg13g2_IOPadIOVss iovdd iovss vdd vss
.ends

* Black-box entry subcircuit for sg13g2_IOPadIOVdd abstract view
.subckt sg13g2_IOPadIOVdd iovdd iovss vdd vss
.ends

* Black-box entry subcircuit for sg13g2_ip__jku abstract view
.subckt sg13g2_ip__jku
.ends

* Black-box entry subcircuit for sg13g2_Filler200 abstract view
.subckt sg13g2_Filler200 iovdd iovss vdd vss
.ends

* Black-box entry subcircuit for sg13g2_IOPadAnalog abstract view
.subckt sg13g2_IOPadAnalog iovdd iovss pad padbare padres vdd vss
.ends

* Black-box entry subcircuit for sg13g2_IOPadIn abstract view
.subckt sg13g2_IOPadIn iovdd iovss p2c pad vdd vss
.ends

* Black-box entry subcircuit for counter_top abstract view
.subckt counter_top VDD VSS clock_i counter_value_o[0] counter_value_o[1] counter_value_o[2]
+ counter_value_o[3] counter_value_o[4] counter_value_o[5] counter_value_o[6] counter_value_o[7]
+ enable_i reset_n_i
.ends

* Black-box entry subcircuit for RM_IHPSG13_1P_1024x32_c2_bm_bist abstract view
.subckt RM_IHPSG13_1P_1024x32_c2_bm_bist A_DIN[16] A_DIN[15] A_BIST_DIN[16] A_BIST_DIN[15]
+ A_BM[16] A_BM[15] A_BIST_BM[16] A_BIST_BM[15] A_DOUT[16] A_DOUT[15] VSS VDD VDDARRAY
+ A_DIN[17] A_DIN[14] A_BIST_DIN[17] A_BIST_DIN[14] A_BM[17] A_BM[14] A_BIST_BM[17]
+ A_BIST_BM[14] A_DOUT[17] A_DOUT[14] A_DIN[18] A_DIN[13] A_BIST_DIN[18] A_BIST_DIN[13]
+ A_BM[18] A_BM[13] A_BIST_BM[18] A_BIST_BM[13] A_DOUT[18] A_DOUT[13] A_DIN[19] A_DIN[12]
+ A_BIST_DIN[19] A_BIST_DIN[12] A_BM[19] A_BM[12] A_BIST_BM[19] A_BIST_BM[12] A_DOUT[19]
+ A_DOUT[12] A_DIN[20] A_DIN[11] A_BIST_DIN[20] A_BIST_DIN[11] A_BM[20] A_BM[11] A_BIST_BM[20]
+ A_BIST_BM[11] A_DOUT[20] A_DOUT[11] A_DIN[21] A_DIN[10] A_BIST_DIN[21] A_BIST_DIN[10]
+ A_BM[21] A_BM[10] A_BIST_BM[21] A_BIST_BM[10] A_DOUT[21] A_DOUT[10] A_DIN[22] A_DIN[9]
+ A_BIST_DIN[22] A_BIST_DIN[9] A_BM[22] A_BM[9] A_BIST_BM[22] A_BIST_BM[9] A_DOUT[22]
+ A_DOUT[9] A_DIN[23] A_DIN[8] A_BIST_DIN[23] A_BIST_DIN[8] A_BM[23] A_BM[8] A_BIST_BM[23]
+ A_BIST_BM[8] A_DOUT[23] A_DOUT[8] A_DIN[24] A_DIN[7] A_BIST_DIN[24] A_BIST_DIN[7]
+ A_BM[24] A_BM[7] A_BIST_BM[24] A_BIST_BM[7] A_DOUT[24] A_DOUT[7] A_DIN[25] A_DIN[6]
+ A_BIST_DIN[25] A_BIST_DIN[6] A_BM[25] A_BM[6] A_BIST_BM[25] A_BIST_BM[6] A_DOUT[25]
+ A_DOUT[6] A_DIN[26] A_DIN[5] A_BIST_DIN[26] A_BIST_DIN[5] A_BM[26] A_BM[5] A_BIST_BM[26]
+ A_BIST_BM[5] A_DOUT[26] A_DOUT[5] A_DIN[27] A_DIN[4] A_BIST_DIN[27] A_BIST_DIN[4]
+ A_BM[27] A_BM[4] A_BIST_BM[27] A_BIST_BM[4] A_DOUT[27] A_DOUT[4] A_DIN[28] A_DIN[3]
+ A_BIST_DIN[28] A_BIST_DIN[3] A_BM[28] A_BM[3] A_BIST_BM[28] A_BIST_BM[3] A_DOUT[28]
+ A_DOUT[3] A_DIN[29] A_DIN[2] A_BIST_DIN[29] A_BIST_DIN[2] A_BM[29] A_BM[2] A_BIST_BM[29]
+ A_BIST_BM[2] A_DOUT[29] A_DOUT[2] A_DIN[30] A_DIN[1] A_BIST_DIN[30] A_BIST_DIN[1]
+ A_BM[30] A_BM[1] A_BIST_BM[30] A_BIST_BM[1] A_DOUT[30] A_DOUT[1] A_DIN[31] A_DIN[0]
+ A_BIST_DIN[31] A_BIST_DIN[0] A_BM[31] A_BM[0] A_BIST_BM[31] A_BIST_BM[0] A_DOUT[31]
+ A_DOUT[0] A_ADDR[0] A_BIST_ADDR[0] A_ADDR[1] A_BIST_ADDR[1] A_ADDR[2] A_BIST_ADDR[2]
+ A_ADDR[3] A_BIST_ADDR[3] A_ADDR[4] A_BIST_ADDR[4] A_ADDR[5] A_BIST_ADDR[5] A_ADDR[6]
+ A_BIST_ADDR[6] A_ADDR[7] A_BIST_ADDR[7] A_ADDR[8] A_BIST_ADDR[8] A_ADDR[9] A_BIST_ADDR[9]
+ A_CLK A_REN A_WEN A_MEN A_DLY A_BIST_EN A_BIST_CLK A_BIST_REN A_BIST_WEN A_BIST_MEN
.ends

* Black-box entry subcircuit for sg13g2_ip__jku_names abstract view
.subckt sg13g2_ip__jku_names
.ends

* Black-box entry subcircuit for sg13g2_IOPadVdd abstract view
.subckt sg13g2_IOPadVdd iovdd iovss vdd vss
.ends

* Black-box entry subcircuit for sg13g2_buf_16 abstract view
.subckt sg13g2_buf_16 X A VDD VSS
.ends

* Black-box entry subcircuit for sg13g2_IOPadInOut30mA abstract view
.subckt sg13g2_IOPadInOut30mA c2p c2p_en iovdd iovss p2c pad vdd vss
.ends

* Black-box entry subcircuit for sg13g2_antennanp abstract view
.subckt sg13g2_antennanp A VDD VSS
.ends

.subckt chip_top IOVDD IOVSS VDD VSS analog_PAD[0] analog_PAD[1] analog_PAD[2] analog_PAD[3]
+ bidir_PAD[0] bidir_PAD[1] bidir_PAD[2] bidir_PAD[3] clk_PAD input_PAD output_PAD[0]
+ output_PAD[10] output_PAD[11] output_PAD[12] output_PAD[13] output_PAD[14] output_PAD[15]
+ output_PAD[16] output_PAD[1] output_PAD[2] output_PAD[3] output_PAD[4] output_PAD[5]
+ output_PAD[6] output_PAD[7] output_PAD[8] output_PAD[9] rst_n_PAD
XFILLER_214_1666 VDD VSS sg13g2_decap_8
XFILLER_227_301 VDD VSS sg13g2_decap_8
XFILLER_223_21 VDD VSS sg13g2_decap_8
XFILLER_210_1519 VDD VSS sg13g2_decap_8
XFILLER_132_1344 VDD VSS sg13g2_decap_8
XFILLER_28_918 VDD VSS sg13g2_decap_8
XFILLER_80_1287 VDD VSS sg13g2_decap_8
XFILLER_228_868 VDD VSS sg13g2_decap_8
XFILLER_27_406 VDD VSS sg13g2_decap_8
XFILLER_3_1722 VDD VSS sg13g2_decap_8
XFILLER_23_1661 VDD VSS sg13g2_decap_8
XFILLER_215_518 VDD VSS sg13g2_decap_8
XFILLER_227_378 VDD VSS sg13g2_decap_8
XFILLER_223_98 VDD VSS sg13g2_decap_8
XFILLER_58_1702 VDD VSS sg13g2_decap_8
XFILLER_208_581 VDD VSS sg13g2_decap_8
XFILLER_3_1799 VDD VSS sg13g2_decap_8
XFILLER_39_1112 VDD VSS sg13g2_decap_8
XFILLER_78_1161 VDD VSS sg13g2_decap_8
XFILLER_97_1784 VDD VSS sg13g2_decap_8
XFILLER_165_1120 VDD VSS sg13g2_decap_8
XFILLER_110_1686 VDD VSS sg13g2_decap_8
XFILLER_19_1708 VDD VSS sg13g2_decap_8
XFILLER_93_1637 VDD VSS sg13g2_decap_8
XFILLER_184_1765 VDD VSS sg13g2_decap_8
XFILLER_23_634 VDD VSS sg13g2_decap_8
XFILLER_58_1779 VDD VSS sg13g2_decap_8
XFILLER_145_1749 VDD VSS sg13g2_decap_8
XFILLER_126_1126 VDD VSS sg13g2_decap_8
XFILLER_211_735 VDD VSS sg13g2_decap_8
XFILLER_223_595 VDD VSS sg13g2_decap_8
XFILLER_22_133 VDD VSS sg13g2_decap_8
XFILLER_17_1421 VDD VSS sg13g2_decap_8
XFILLER_91_1350 VDD VSS sg13g2_decap_8
XFILLER_167_105 VDD VSS sg13g2_decap_8
XFILLER_196_959 VDD VSS sg13g2_decap_8
XFILLER_210_245 VDD VSS sg13g2_decap_8
XFILLER_108_1560 VDD VSS sg13g2_decap_8
XFILLER_104_1413 VDD VSS sg13g2_decap_8
XFILLER_183_609 VDD VSS sg13g2_decap_8
XFILLER_206_1183 VDD VSS sg13g2_decap_8
XFILLER_195_469 VDD VSS sg13g2_decap_8
XIO_FILL_IO_NORTH_1_20 IOVDD IOVSS VDD VSS sg13g2_Filler2000
XFILLER_149_875 VDD VSS sg13g2_decap_8
XFILLER_202_1036 VDD VSS sg13g2_decap_8
XFILLER_221_1659 VDD VSS sg13g2_decap_8
XFILLER_17_1498 VDD VSS sg13g2_decap_8
XFILLER_164_812 VDD VSS sg13g2_decap_8
XFILLER_176_672 VDD VSS sg13g2_decap_8
XFILLER_182_119 VDD VSS sg13g2_decap_8
XFILLER_136_525 VDD VSS sg13g2_decap_8
XFILLER_148_385 VDD VSS sg13g2_decap_8
XFILLER_175_182 VDD VSS sg13g2_decap_8
XFILLER_163_322 VDD VSS sg13g2_decap_8
XFILLER_50_1091 VDD VSS sg13g2_decap_8
XFILLER_184_28 VDD VSS sg13g2_decap_8
XFILLER_30_1676 VDD VSS sg13g2_decap_8
XFILLER_164_889 VDD VSS sg13g2_decap_8
XFILLER_11_1064 VDD VSS sg13g2_decap_8
XFILLER_191_686 VDD VSS sg13g2_decap_8
XFILLER_219_1533 VDD VSS sg13g2_decap_8
XFILLER_137_1211 VDD VSS sg13g2_decap_8
XFILLER_151_539 VDD VSS sg13g2_decap_8
XFILLER_163_399 VDD VSS sg13g2_decap_8
XFILLER_46_1105 VDD VSS sg13g2_decap_8
XFILLER_65_1728 VDD VSS sg13g2_decap_8
XFILLER_85_1154 VDD VSS sg13g2_decap_8
XFILLER_190_196 VDD VSS sg13g2_decap_8
XFILLER_172_1113 VDD VSS sg13g2_decap_8
XFILLER_7_7 VDD VSS sg13g2_decap_8
XFILLER_132_742 VDD VSS sg13g2_decap_8
XFILLER_191_1758 VDD VSS sg13g2_decap_8
XFILLER_117_77 VDD VSS sg13g2_decap_8
XFILLER_131_252 VDD VSS sg13g2_decap_8
XFILLER_137_1288 VDD VSS sg13g2_decap_8
XFILLER_150_1400 VDD VSS sg13g2_decap_8
XFILLER_28_1583 VDD VSS sg13g2_decap_8
XFILLER_218_301 VDD VSS sg13g2_decap_8
XFILLER_115_1553 VDD VSS sg13g2_decap_8
XFILLER_8_1666 VDD VSS sg13g2_decap_8
XFILLER_133_21 VDD VSS sg13g2_decap_8
XFILLER_4_1519 VDD VSS sg13g2_decap_8
XFILLER_189_1632 VDD VSS sg13g2_decap_8
XFILLER_111_1406 VDD VSS sg13g2_decap_8
XFILLER_24_1458 VDD VSS sg13g2_decap_8
XFILLER_213_1176 VDD VSS sg13g2_decap_8
XFILLER_219_868 VDD VSS sg13g2_decap_8
XFILLER_93_14 VDD VSS sg13g2_decap_8
XFILLER_18_428 VDD VSS sg13g2_decap_8
XFILLER_41_1772 VDD VSS sg13g2_decap_8
XFILLER_206_518 VDD VSS sg13g2_decap_8
XFILLER_218_378 VDD VSS sg13g2_decap_8
XFILLER_133_98 VDD VSS sg13g2_decap_8
XFILLER_2_1232 VDD VSS sg13g2_decap_8
XFILLER_22_1160 VDD VSS sg13g2_decap_8
XFILLER_27_973 VDD VSS sg13g2_decap_8
XFILLER_26_63 VDD VSS sg13g2_decap_8
XFILLER_199_742 VDD VSS sg13g2_decap_8
XFILLER_148_1351 VDD VSS sg13g2_decap_8
XFILLER_226_1526 VDD VSS sg13g2_decap_8
XFILLER_14_623 VDD VSS sg13g2_decap_8
XFILLER_26_483 VDD VSS sg13g2_decap_8
XFILLER_96_1294 VDD VSS sg13g2_decap_8
XFILLER_144_1204 VDD VSS sg13g2_decap_8
XFILLER_198_252 VDD VSS sg13g2_decap_8
XFILLER_92_1147 VDD VSS sg13g2_decap_8
XFILLER_202_735 VDD VSS sg13g2_decap_8
XFILLER_214_595 VDD VSS sg13g2_decap_8
XFILLER_13_133 VDD VSS sg13g2_decap_8
XFILLER_109_1357 VDD VSS sg13g2_decap_8
XFILLER_158_105 VDD VSS sg13g2_decap_8
XFILLER_187_959 VDD VSS sg13g2_decap_8
XFILLER_201_245 VDD VSS sg13g2_decap_8
XFILLER_161_1540 VDD VSS sg13g2_decap_8
XFILLER_9_126 VDD VSS sg13g2_decap_8
XFILLER_70_1434 VDD VSS sg13g2_decap_8
XFILLER_186_469 VDD VSS sg13g2_decap_8
XFILLER_174_609 VDD VSS sg13g2_decap_8
XFILLER_107_1070 VDD VSS sg13g2_decap_8
XFILLER_220_0 VDD VSS sg13g2_decap_8
XFILLER_126_1693 VDD VSS sg13g2_decap_8
XFILLER_10_840 VDD VSS sg13g2_decap_8
XFILLER_155_801 VDD VSS sg13g2_decap_8
XFILLER_42_84 VDD VSS sg13g2_decap_8
XFILLER_167_672 VDD VSS sg13g2_decap_8
XFILLER_196_1603 VDD VSS sg13g2_decap_8
XFILLER_122_1546 VDD VSS sg13g2_decap_8
XFILLER_173_119 VDD VSS sg13g2_decap_8
XFILLER_127_525 VDD VSS sg13g2_decap_8
XFILLER_139_385 VDD VSS sg13g2_decap_8
XFILLER_220_1169 VDD VSS sg13g2_decap_8
XFILLER_6_833 VDD VSS sg13g2_decap_8
XFILLER_158_84 VDD VSS sg13g2_decap_8
XFILLER_166_182 VDD VSS sg13g2_decap_8
XFILLER_154_322 VDD VSS sg13g2_decap_8
XFILLER_155_878 VDD VSS sg13g2_decap_8
XFILLER_5_343 VDD VSS sg13g2_decap_8
XFILLER_138_1008 VDD VSS sg13g2_decap_8
XFILLER_170_826 VDD VSS sg13g2_decap_8
XFILLER_177_1057 VDD VSS sg13g2_decap_8
XFILLER_182_686 VDD VSS sg13g2_decap_8
XFILLER_142_539 VDD VSS sg13g2_decap_8
XFILLER_154_399 VDD VSS sg13g2_decap_8
XFILLER_159_1491 VDD VSS sg13g2_decap_8
XFILLER_181_196 VDD VSS sg13g2_decap_8
XFILLER_218_1043 VDD VSS sg13g2_decap_8
XFILLER_155_1333 VDD VSS sg13g2_decap_8
XFILLER_68_1385 VDD VSS sg13g2_decap_8
XFILLER_29_1358 VDD VSS sg13g2_decap_8
XFILLER_64_1238 VDD VSS sg13g2_decap_8
XFILLER_1_560 VDD VSS sg13g2_decap_8
XFILLER_3_56 VDD VSS sg13g2_decap_8
XFILLER_211_1806 VDD VSS sg13g2_decap_4
XFILLER_209_301 VDD VSS sg13g2_decap_8
XFILLER_27_1071 VDD VSS sg13g2_decap_8
XFILLER_67_70 VDD VSS sg13g2_decap_8
XFILLER_7_1176 VDD VSS sg13g2_decap_8
XFILLER_188_1120 VDD VSS sg13g2_decap_8
XFILLER_133_1686 VDD VSS sg13g2_decap_8
XFILLER_114_1063 VDD VSS sg13g2_decap_8
XFILLER_225_805 VDD VSS sg13g2_decap_8
XFILLER_3_1029 VDD VSS sg13g2_decap_8
XFILLER_168_1716 VDD VSS sg13g2_decap_8
XFILLER_209_378 VDD VSS sg13g2_decap_8
XFILLER_224_315 VDD VSS sg13g2_decap_8
XFILLER_75_1301 VDD VSS sg13g2_decap_8
XFILLER_149_1148 VDD VSS sg13g2_decap_8
XFILLER_18_995 VDD VSS sg13g2_decap_8
XFILLER_17_483 VDD VSS sg13g2_decap_8
XFILLER_83_91 VDD VSS sg13g2_decap_8
XFILLER_209_1757 VDD VSS sg13g2_decap_8
XFILLER_189_252 VDD VSS sg13g2_decap_8
XFILLER_127_1435 VDD VSS sg13g2_decap_8
XFILLER_225_1036 VDD VSS sg13g2_decap_8
XFILLER_205_595 VDD VSS sg13g2_decap_8
XFILLER_199_91 VDD VSS sg13g2_decap_8
XFILLER_75_1378 VDD VSS sg13g2_decap_8
XFILLER_149_105 VDD VSS sg13g2_decap_8
XFILLER_220_532 VDD VSS sg13g2_decap_8
XFILLER_162_1337 VDD VSS sg13g2_decap_8
XFILLER_18_1730 VDD VSS sg13g2_decap_8
XFILLER_178_959 VDD VSS sg13g2_decap_8
XFILLER_20_615 VDD VSS sg13g2_decap_8
XFILLER_53_1632 VDD VSS sg13g2_decap_8
XFILLER_207_1470 VDD VSS sg13g2_decap_8
XFILLER_105_1700 VDD VSS sg13g2_decap_8
XFILLER_165_609 VDD VSS sg13g2_decap_8
XFILLER_177_469 VDD VSS sg13g2_decap_8
XFILLER_203_1323 VDD VSS sg13g2_decap_8
XFILLER_73_1091 VDD VSS sg13g2_decap_8
XFILLER_192_406 VDD VSS sg13g2_decap_8
XFILLER_160_1050 VDD VSS sg13g2_decap_8
XFILLER_34_1064 VDD VSS sg13g2_decap_8
XFILLER_14_1638 VDD VSS sg13g2_decap_8
XFILLER_146_812 VDD VSS sg13g2_decap_8
XFILLER_158_672 VDD VSS sg13g2_decap_8
XFILLER_164_119 VDD VSS sg13g2_decap_8
XFILLER_199_1260 VDD VSS sg13g2_decap_8
XFILLER_105_1777 VDD VSS sg13g2_decap_8
XFILLER_9_693 VDD VSS sg13g2_decap_8
XFILLER_69_1105 VDD VSS sg13g2_decap_8
XFILLER_88_1728 VDD VSS sg13g2_decap_8
XFILLER_157_182 VDD VSS sg13g2_decap_8
XFILLER_145_322 VDD VSS sg13g2_decap_8
XFILLER_140_1679 VDD VSS sg13g2_decap_8
XFILLER_121_1056 VDD VSS sg13g2_decap_8
XFILLER_195_1113 VDD VSS sg13g2_decap_8
XFILLER_218_21 VDD VSS sg13g2_decap_8
XFILLER_66_0 VDD VSS sg13g2_decap_8
XFILLER_12_1351 VDD VSS sg13g2_decap_8
XFILLER_175_1709 VDD VSS sg13g2_decap_8
XFILLER_146_889 VDD VSS sg13g2_decap_8
XFILLER_103_1490 VDD VSS sg13g2_decap_8
XFILLER_161_826 VDD VSS sg13g2_decap_8
XFILLER_173_686 VDD VSS sg13g2_decap_8
XFILLER_86_1441 VDD VSS sg13g2_decap_8
XFILLER_133_539 VDD VSS sg13g2_decap_8
XFILLER_145_399 VDD VSS sg13g2_decap_8
XFILLER_218_98 VDD VSS sg13g2_decap_8
XFILLER_172_196 VDD VSS sg13g2_decap_8
XFILLER_160_336 VDD VSS sg13g2_decap_8
XFILLER_134_1428 VDD VSS sg13g2_decap_8
XFILLER_25_1701 VDD VSS sg13g2_decap_8
XFILLER_5_1806 VDD VSS sg13g2_decap_4
XFILLER_151_1742 VDD VSS sg13g2_decap_8
XFILLER_60_1625 VDD VSS sg13g2_decap_8
XFILLER_214_1463 VDD VSS sg13g2_decap_8
XFILLER_132_1141 VDD VSS sg13g2_decap_8
XFILLER_210_1316 VDD VSS sg13g2_decap_8
XFILLER_41_1035 VDD VSS sg13g2_decap_8
XFILLER_80_1084 VDD VSS sg13g2_decap_8
XFILLER_28_715 VDD VSS sg13g2_decap_8
XFILLER_25_1778 VDD VSS sg13g2_decap_8
XFILLER_216_805 VDD VSS sg13g2_decap_8
XFILLER_27_203 VDD VSS sg13g2_decap_8
XFILLER_228_665 VDD VSS sg13g2_decap_8
XFILLER_103_35 VDD VSS sg13g2_decap_8
XFILLER_215_315 VDD VSS sg13g2_decap_8
XFILLER_227_175 VDD VSS sg13g2_decap_8
XFILLER_63_28 VDD VSS sg13g2_decap_8
XFILLER_110_1483 VDD VSS sg13g2_decap_8
XFILLER_3_1596 VDD VSS sg13g2_decap_8
XFILLER_24_921 VDD VSS sg13g2_decap_8
XFILLER_19_1505 VDD VSS sg13g2_decap_8
XFILLER_93_1434 VDD VSS sg13g2_decap_8
XFILLER_179_28 VDD VSS sg13g2_decap_8
XFILLER_224_882 VDD VSS sg13g2_decap_8
XFILLER_23_431 VDD VSS sg13g2_decap_8
XFILLER_149_1693 VDD VSS sg13g2_decap_8
XFILLER_211_532 VDD VSS sg13g2_decap_8
XFILLER_208_1267 VDD VSS sg13g2_decap_8
XFILLER_223_392 VDD VSS sg13g2_decap_8
XFILLER_144_7 VDD VSS sg13g2_decap_8
XFILLER_71_1721 VDD VSS sg13g2_decap_8
XFILLER_169_959 VDD VSS sg13g2_decap_8
XFILLER_196_756 VDD VSS sg13g2_decap_8
XFILLER_11_637 VDD VSS sg13g2_decap_8
XFILLER_156_609 VDD VSS sg13g2_decap_8
XFILLER_168_469 VDD VSS sg13g2_decap_8
XFILLER_195_266 VDD VSS sg13g2_decap_8
XFILLER_104_1210 VDD VSS sg13g2_decap_8
XFILLER_32_1716 VDD VSS sg13g2_decap_8
XFILLER_183_406 VDD VSS sg13g2_decap_8
XFILLER_143_1270 VDD VSS sg13g2_decap_8
XFILLER_137_812 VDD VSS sg13g2_decap_8
XFILLER_10_147 VDD VSS sg13g2_decap_8
XFILLER_155_119 VDD VSS sg13g2_decap_8
XFILLER_149_672 VDD VSS sg13g2_decap_8
XFILLER_221_1456 VDD VSS sg13g2_decap_8
XFILLER_12_21 VDD VSS sg13g2_decap_8
XFILLER_71_1798 VDD VSS sg13g2_decap_8
XFILLER_17_1295 VDD VSS sg13g2_decap_8
XFILLER_195_49 VDD VSS sg13g2_decap_8
XFILLER_136_322 VDD VSS sg13g2_decap_8
XFILLER_13_1148 VDD VSS sg13g2_decap_8
XFILLER_148_182 VDD VSS sg13g2_decap_8
XFILLER_128_21 VDD VSS sg13g2_decap_8
XFILLER_104_1287 VDD VSS sg13g2_decap_8
XFILLER_192_973 VDD VSS sg13g2_decap_8
XFILLER_87_1238 VDD VSS sg13g2_decap_8
XFILLER_137_889 VDD VSS sg13g2_decap_8
XFILLER_152_826 VDD VSS sg13g2_decap_8
XFILLER_88_14 VDD VSS sg13g2_decap_8
XFILLER_12_98 VDD VSS sg13g2_decap_8
XFILLER_30_1473 VDD VSS sg13g2_decap_8
XFILLER_164_686 VDD VSS sg13g2_decap_8
XFILLER_191_483 VDD VSS sg13g2_decap_8
XFILLER_219_1330 VDD VSS sg13g2_decap_8
XFILLER_136_399 VDD VSS sg13g2_decap_8
XFILLER_3_847 VDD VSS sg13g2_decap_8
XFILLER_69_1672 VDD VSS sg13g2_decap_8
XFILLER_151_336 VDD VSS sg13g2_decap_8
XFILLER_156_1631 VDD VSS sg13g2_decap_8
XFILLER_128_98 VDD VSS sg13g2_decap_8
XFILLER_163_196 VDD VSS sg13g2_decap_8
XFILLER_65_1525 VDD VSS sg13g2_decap_8
XFILLER_2_357 VDD VSS sg13g2_decap_8
XFILLER_117_1637 VDD VSS sg13g2_decap_8
XFILLER_144_42 VDD VSS sg13g2_decap_8
XFILLER_137_1085 VDD VSS sg13g2_decap_8
XFILLER_28_1380 VDD VSS sg13g2_decap_8
XFILLER_8_1463 VDD VSS sg13g2_decap_8
XFILLER_115_1350 VDD VSS sg13g2_decap_8
XFILLER_4_1316 VDD VSS sg13g2_decap_8
XFILLER_98_1301 VDD VSS sg13g2_decap_8
XFILLER_111_1203 VDD VSS sg13g2_decap_8
XFILLER_24_1255 VDD VSS sg13g2_decap_8
XFILLER_207_805 VDD VSS sg13g2_decap_8
XFILLER_219_665 VDD VSS sg13g2_decap_8
XFILLER_18_203 VDD VSS sg13g2_decap_8
XFILLER_150_1274 VDD VSS sg13g2_decap_8
XFILLER_206_315 VDD VSS sg13g2_decap_8
XFILLER_218_175 VDD VSS sg13g2_decap_8
XFILLER_170_0 VDD VSS sg13g2_decap_8
XFILLER_37_84 VDD VSS sg13g2_decap_8
XFILLER_98_1378 VDD VSS sg13g2_decap_8
XFILLER_160_63 VDD VSS sg13g2_decap_8
XFILLER_15_910 VDD VSS sg13g2_decap_8
XFILLER_27_770 VDD VSS sg13g2_decap_8
XFILLER_222_819 VDD VSS sg13g2_decap_8
XFILLER_128_1700 VDD VSS sg13g2_decap_8
XFILLER_226_1323 VDD VSS sg13g2_decap_8
XFILLER_215_882 VDD VSS sg13g2_decap_8
XFILLER_14_420 VDD VSS sg13g2_decap_8
XFILLER_26_280 VDD VSS sg13g2_decap_8
XFILLER_57_1042 VDD VSS sg13g2_decap_8
XFILLER_96_1091 VDD VSS sg13g2_decap_8
XFILLER_76_1665 VDD VSS sg13g2_decap_8
XFILLER_221_329 VDD VSS sg13g2_decap_8
XFILLER_167_1793 VDD VSS sg13g2_decap_8
XFILLER_183_1050 VDD VSS sg13g2_decap_8
XFILLER_144_1001 VDD VSS sg13g2_decap_8
XFILLER_72_1518 VDD VSS sg13g2_decap_8
XFILLER_202_532 VDD VSS sg13g2_decap_8
XFILLER_214_392 VDD VSS sg13g2_decap_8
XFILLER_163_1646 VDD VSS sg13g2_decap_8
XFILLER_15_987 VDD VSS sg13g2_decap_8
XFILLER_128_1777 VDD VSS sg13g2_decap_8
XFILLER_109_1154 VDD VSS sg13g2_decap_8
XFILLER_18_1037 VDD VSS sg13g2_decap_8
XFILLER_187_756 VDD VSS sg13g2_decap_8
XFILLER_204_1610 VDD VSS sg13g2_decap_8
XFILLER_14_497 VDD VSS sg13g2_decap_8
XFILLER_70_1231 VDD VSS sg13g2_decap_8
XFILLER_147_609 VDD VSS sg13g2_decap_8
XFILLER_159_469 VDD VSS sg13g2_decap_8
XFILLER_144_1078 VDD VSS sg13g2_decap_8
XFILLER_174_406 VDD VSS sg13g2_decap_8
XFILLER_186_266 VDD VSS sg13g2_decap_8
XFILLER_128_812 VDD VSS sg13g2_decap_8
XFILLER_146_119 VDD VSS sg13g2_decap_8
XFILLER_122_1343 VDD VSS sg13g2_decap_8
XFILLER_204_1687 VDD VSS sg13g2_decap_8
XFILLER_196_1400 VDD VSS sg13g2_decap_8
XFILLER_139_182 VDD VSS sg13g2_decap_8
XFILLER_127_322 VDD VSS sg13g2_decap_8
XFILLER_6_630 VDD VSS sg13g2_decap_8
XFILLER_183_973 VDD VSS sg13g2_decap_8
XFILLER_128_889 VDD VSS sg13g2_decap_8
XFILLER_5_140 VDD VSS sg13g2_decap_8
XFILLER_155_675 VDD VSS sg13g2_decap_8
XFILLER_100_1630 VDD VSS sg13g2_decap_8
XFILLER_143_826 VDD VSS sg13g2_decap_8
XFILLER_196_1477 VDD VSS sg13g2_decap_8
XFILLER_157_1428 VDD VSS sg13g2_decap_8
XFILLER_170_623 VDD VSS sg13g2_decap_8
XFILLER_182_483 VDD VSS sg13g2_decap_8
XFILLER_127_399 VDD VSS sg13g2_decap_8
XFILLER_48_1723 VDD VSS sg13g2_decap_8
XFILLER_154_196 VDD VSS sg13g2_decap_8
XFILLER_142_336 VDD VSS sg13g2_decap_8
XFILLER_155_1130 VDD VSS sg13g2_decap_8
XFILLER_68_1182 VDD VSS sg13g2_decap_8
XFILLER_64_1035 VDD VSS sg13g2_decap_8
XFILLER_29_1155 VDD VSS sg13g2_decap_8
XFILLER_83_1658 VDD VSS sg13g2_decap_8
XFILLER_190_1043 VDD VSS sg13g2_decap_8
XFILLER_174_1786 VDD VSS sg13g2_decap_8
XFILLER_25_1008 VDD VSS sg13g2_decap_8
XFILLER_170_1639 VDD VSS sg13g2_decap_8
XFILLER_215_1750 VDD VSS sg13g2_decap_8
XFILLER_116_1147 VDD VSS sg13g2_decap_8
XFILLER_78_91 VDD VSS sg13g2_decap_8
XFILLER_211_1603 VDD VSS sg13g2_decap_8
XFILLER_81_1371 VDD VSS sg13g2_decap_8
XFILLER_204_56 VDD VSS sg13g2_decap_8
XFILLER_225_602 VDD VSS sg13g2_decap_8
XFILLER_209_175 VDD VSS sg13g2_decap_8
XFILLER_20_1620 VDD VSS sg13g2_decap_8
XFILLER_224_112 VDD VSS sg13g2_decap_8
XFILLER_25_707 VDD VSS sg13g2_decap_8
XFILLER_111_1770 VDD VSS sg13g2_decap_8
XFILLER_0_1736 VDD VSS sg13g2_decap_8
XFILLER_94_1721 VDD VSS sg13g2_decap_8
XFILLER_213_819 VDD VSS sg13g2_decap_8
XFILLER_225_679 VDD VSS sg13g2_decap_8
XFILLER_18_792 VDD VSS sg13g2_decap_8
XFILLER_24_228 VDD VSS sg13g2_decap_8
XFILLER_20_1697 VDD VSS sg13g2_decap_8
XFILLER_206_882 VDD VSS sg13g2_decap_8
XFILLER_181_1702 VDD VSS sg13g2_decap_8
XFILLER_17_280 VDD VSS sg13g2_decap_8
XFILLER_212_329 VDD VSS sg13g2_decap_8
XFILLER_224_189 VDD VSS sg13g2_decap_8
XFILLER_55_1716 VDD VSS sg13g2_decap_8
XFILLER_209_1554 VDD VSS sg13g2_decap_8
XFILLER_127_1232 VDD VSS sg13g2_decap_8
XFILLER_205_1407 VDD VSS sg13g2_decap_8
XFILLER_205_392 VDD VSS sg13g2_decap_8
XFILLER_220_77 VDD VSS sg13g2_decap_8
XFILLER_36_1126 VDD VSS sg13g2_decap_8
XFILLER_75_1175 VDD VSS sg13g2_decap_8
XFILLER_94_1798 VDD VSS sg13g2_decap_8
XFILLER_162_1134 VDD VSS sg13g2_decap_8
Xi_chip_core.inverter2_4 i_chip_core.inverter2/vout4 VDD VSS sg13g2_tielo
XFILLER_20_401 VDD VSS sg13g2_decap_4
XFILLER_178_756 VDD VSS sg13g2_decap_8
XFILLER_181_1779 VDD VSS sg13g2_decap_8
XFILLER_138_609 VDD VSS sg13g2_decap_8
XFILLER_221_896 VDD VSS sg13g2_decap_8
XFILLER_20_434 VDD VSS sg13g2_decap_8
XFILLER_222_1743 VDD VSS sg13g2_decap_8
XFILLER_203_1120 VDD VSS sg13g2_decap_8
XFILLER_21_968 VDD VSS sg13g2_decap_8
XFILLER_165_406 VDD VSS sg13g2_decap_8
XFILLER_177_266 VDD VSS sg13g2_decap_8
XFILLER_192_203 VDD VSS sg13g2_decap_8
XFILLER_140_1421 VDD VSS sg13g2_decap_8
XFILLER_137_119 VDD VSS sg13g2_decap_8
XFILLER_14_1435 VDD VSS sg13g2_decap_8
XFILLER_20_489 VDD VSS sg13g2_decap_8
XFILLER_105_1574 VDD VSS sg13g2_decap_8
XFILLER_9_490 VDD VSS sg13g2_decap_8
XFILLER_179_1653 VDD VSS sg13g2_decap_8
XFILLER_101_1427 VDD VSS sg13g2_decap_8
XFILLER_203_1197 VDD VSS sg13g2_decap_8
XFILLER_174_973 VDD VSS sg13g2_decap_8
XFILLER_134_826 VDD VSS sg13g2_decap_8
XFILLER_146_686 VDD VSS sg13g2_decap_8
XFILLER_31_1793 VDD VSS sg13g2_decap_8
XFILLER_161_623 VDD VSS sg13g2_decap_8
XFILLER_173_483 VDD VSS sg13g2_decap_8
XFILLER_145_196 VDD VSS sg13g2_decap_8
XFILLER_133_336 VDD VSS sg13g2_decap_8
XFILLER_160_133 VDD VSS sg13g2_decap_8
XFILLER_138_1372 VDD VSS sg13g2_decap_8
XFILLER_62_1709 VDD VSS sg13g2_decap_8
XFILLER_216_1547 VDD VSS sg13g2_decap_8
XFILLER_58_28 VDD VSS sg13g2_decap_8
XFILLER_134_1225 VDD VSS sg13g2_decap_8
XFILLER_9_1750 VDD VSS sg13g2_decap_8
XFILLER_43_1119 VDD VSS sg13g2_decap_8
XFILLER_82_1168 VDD VSS sg13g2_decap_8
XFILLER_5_1603 VDD VSS sg13g2_decap_8
XFILLER_214_1260 VDD VSS sg13g2_decap_8
XIO_FILL_IO_NORTH_7_30 IOVDD IOVSS VDD VSS sg13g2_Filler1000
XFILLER_210_1113 VDD VSS sg13g2_decap_8
XFILLER_25_1575 VDD VSS sg13g2_decap_8
XFILLER_114_56 VDD VSS sg13g2_decap_8
XFILLER_216_602 VDD VSS sg13g2_decap_8
XFILLER_228_462 VDD VSS sg13g2_decap_8
XFILLER_99_1665 VDD VSS sg13g2_decap_8
XFILLER_112_1567 VDD VSS sg13g2_decap_8
XFILLER_167_1001 VDD VSS sg13g2_decap_8
XFILLER_215_112 VDD VSS sg13g2_decap_8
XFILLER_16_707 VDD VSS sg13g2_decap_8
XFILLER_74_49 VDD VSS sg13g2_decap_8
XFILLER_28_567 VDD VSS sg13g2_decap_4
XFILLER_186_1646 VDD VSS sg13g2_decap_8
XFILLER_28_589 VDD VSS sg13g2_decap_8
XFILLER_204_819 VDD VSS sg13g2_decap_8
XFILLER_15_217 VDD VSS sg13g2_decap_8
XFILLER_227_1610 VDD VSS sg13g2_decap_8
XFILLER_216_679 VDD VSS sg13g2_decap_8
XFILLER_3_1393 VDD VSS sg13g2_decap_8
XFILLER_110_1280 VDD VSS sg13g2_decap_8
XFILLER_73_1805 VDD VSS sg13g2_decap_4
XFILLER_93_1231 VDD VSS sg13g2_decap_8
XFILLER_203_329 VDD VSS sg13g2_decap_8
XFILLER_19_1302 VDD VSS sg13g2_decap_8
XFILLER_128_1029 VDD VSS sg13g2_decap_8
XFILLER_167_1078 VDD VSS sg13g2_decap_8
XFILLER_215_189 VDD VSS sg13g2_decap_8
XFILLER_130_77 VDD VSS sg13g2_decap_8
XFILLER_23_250 VDD VSS sg13g2_decap_8
XFILLER_227_1687 VDD VSS sg13g2_decap_8
XFILLER_208_1064 VDD VSS sg13g2_decap_8
XFILLER_12_924 VDD VSS sg13g2_decap_8
X_200_ _204_/A _200_/A _200_/B VDD VSS sg13g2_xnor2_1
XFILLER_24_795 VDD VSS sg13g2_decap_8
XFILLER_169_756 VDD VSS sg13g2_decap_8
XFILLER_145_1365 VDD VSS sg13g2_decap_8
XFILLER_23_272 VDD VSS sg13g2_decap_8
XFILLER_196_553 VDD VSS sg13g2_decap_8
XFILLER_19_1379 VDD VSS sg13g2_decap_8
XFILLER_129_609 VDD VSS sg13g2_decap_8
XFILLER_212_896 VDD VSS sg13g2_decap_8
XFILLER_141_1218 VDD VSS sg13g2_decap_8
XFILLER_11_434 VDD VSS sg13g2_decap_8
XFILLER_36_1660 VDD VSS sg13g2_decap_8
XFILLER_23_42 VDD VSS sg13g2_decap_8
XFILLER_8_917 VDD VSS sg13g2_decap_8
XFILLER_156_406 VDD VSS sg13g2_decap_8
XFILLER_168_266 VDD VSS sg13g2_decap_8
XFILLER_123_1630 VDD VSS sg13g2_decap_8
XFILLER_128_119 VDD VSS sg13g2_decap_8
XFILLER_183_203 VDD VSS sg13g2_decap_8
XFILLER_7_427 VDD VSS sg13g2_decap_8
XFILLER_139_42 VDD VSS sg13g2_decap_8
XFILLER_221_1253 VDD VSS sg13g2_decap_8
XFILLER_17_1092 VDD VSS sg13g2_decap_8
XFILLER_71_1595 VDD VSS sg13g2_decap_8
XFILLER_20_990 VDD VSS sg13g2_decap_8
XFILLER_99_35 VDD VSS sg13g2_decap_8
XFILLER_165_973 VDD VSS sg13g2_decap_8
XFILLER_197_1764 VDD VSS sg13g2_decap_8
XFILLER_178_1141 VDD VSS sg13g2_decap_8
XFILLER_158_1715 VDD VSS sg13g2_decap_8
XFILLER_104_1084 VDD VSS sg13g2_decap_8
XFILLER_180_910 VDD VSS sg13g2_decap_8
XFILLER_192_770 VDD VSS sg13g2_decap_8
XFILLER_87_1035 VDD VSS sg13g2_decap_8
XFILLER_67_1609 VDD VSS sg13g2_decap_8
XFILLER_137_686 VDD VSS sg13g2_decap_8
XFILLER_30_1270 VDD VSS sg13g2_decap_8
XFILLER_152_623 VDD VSS sg13g2_decap_8
XFILLER_164_483 VDD VSS sg13g2_decap_8
XFILLER_193_1639 VDD VSS sg13g2_decap_8
XFILLER_191_280 VDD VSS sg13g2_decap_8
XFILLER_136_196 VDD VSS sg13g2_decap_8
XFILLER_3_644 VDD VSS sg13g2_decap_8
XFILLER_151_133 VDD VSS sg13g2_decap_8
XFILLER_65_1322 VDD VSS sg13g2_decap_8
XFILLER_139_1169 VDD VSS sg13g2_decap_8
XFILLER_180_987 VDD VSS sg13g2_decap_8
XFILLER_155_63 VDD VSS sg13g2_decap_8
XFILLER_2_154 VDD VSS sg13g2_decap_8
XFILLER_80_1809 VDD VSS sg13g2_fill_2
XFILLER_117_1434 VDD VSS sg13g2_decap_8
XFILLER_215_1057 VDD VSS sg13g2_decap_8
XFILLER_65_1399 VDD VSS sg13g2_decap_8
XFILLER_152_1358 VDD VSS sg13g2_decap_8
XFILLER_8_1260 VDD VSS sg13g2_decap_8
XFILLER_43_1653 VDD VSS sg13g2_decap_8
XFILLER_134_1770 VDD VSS sg13g2_decap_8
XFILLER_4_1113 VDD VSS sg13g2_decap_8
XFILLER_169_1800 VDD VSS sg13g2_decap_8
XFILLER_130_1623 VDD VSS sg13g2_decap_8
XFILLER_24_1052 VDD VSS sg13g2_decap_8
XFILLER_207_602 VDD VSS sg13g2_decap_8
XFILLER_219_462 VDD VSS sg13g2_decap_8
XFILLER_150_1071 VDD VSS sg13g2_decap_8
XFILLER_19_545 VDD VSS sg13g2_decap_8
XFILLER_171_84 VDD VSS sg13g2_decap_8
XFILLER_206_112 VDD VSS sg13g2_decap_8
XIO_FILL_IO_SOUTH_1_30 IOVDD IOVSS VDD VSS sg13g2_Filler1000
XFILLER_0_35 VDD VSS sg13g2_decap_8
XFILLER_228_1407 VDD VSS sg13g2_decap_8
XFILLER_59_1126 VDD VSS sg13g2_decap_8
XFILLER_98_1175 VDD VSS sg13g2_decap_8
XFILLER_210_1680 VDD VSS sg13g2_decap_8
XFILLER_78_1749 VDD VSS sg13g2_decap_8
XFILLER_111_1077 VDD VSS sg13g2_decap_8
XFILLER_185_1134 VDD VSS sg13g2_decap_8
XFILLER_207_679 VDD VSS sg13g2_decap_8
XFILLER_222_616 VDD VSS sg13g2_decap_8
XFILLER_226_1120 VDD VSS sg13g2_decap_8
XFILLER_206_189 VDD VSS sg13g2_decap_8
XFILLER_221_126 VDD VSS sg13g2_decap_8
XFILLER_76_1462 VDD VSS sg13g2_decap_4
XFILLER_72_1315 VDD VSS sg13g2_decap_8
XFILLER_15_784 VDD VSS sg13g2_decap_8
XFILLER_187_553 VDD VSS sg13g2_decap_8
XFILLER_124_1427 VDD VSS sg13g2_decap_8
XFILLER_30_743 VDD VSS sg13g2_fill_2
XFILLER_226_1197 VDD VSS sg13g2_decap_8
XFILLER_203_896 VDD VSS sg13g2_decap_8
XFILLER_14_294 VDD VSS sg13g2_decap_8
XFILLER_147_406 VDD VSS sg13g2_decap_8
XFILLER_159_266 VDD VSS sg13g2_decap_8
XFILLER_9_77 VDD VSS sg13g2_decap_8
XFILLER_15_1722 VDD VSS sg13g2_decap_8
XFILLER_174_203 VDD VSS sg13g2_decap_8
XFILLER_80_70 VDD VSS sg13g2_decap_8
XFILLER_30_776 VDD VSS sg13g2_fill_2
XFILLER_119_119 VDD VSS sg13g2_decap_4
XFILLER_54_1793 VDD VSS sg13g2_decap_8
XFILLER_141_1763 VDD VSS sg13g2_decap_8
XFILLER_122_1140 VDD VSS sg13g2_decap_8
XFILLER_50_1646 VDD VSS sg13g2_decap_8
XFILLER_204_1484 VDD VSS sg13g2_decap_8
XFILLER_196_70 VDD VSS sg13g2_decap_8
XFILLER_102_1725 VDD VSS sg13g2_decap_8
XFILLER_190_707 VDD VSS sg13g2_decap_8
XFILLER_200_1337 VDD VSS sg13g2_decap_8
XFILLER_31_1056 VDD VSS sg13g2_decap_8
XFILLER_156_973 VDD VSS sg13g2_decap_8
XFILLER_15_1799 VDD VSS sg13g2_decap_8
XFILLER_183_770 VDD VSS sg13g2_decap_8