* NGSPICE file created from counter_top.ext - technology: ihp-sg13g2

* Black-box entry subcircuit for sg13g2_decap_8 abstract view
.subckt sg13g2_decap_8 VDD VSS
.ends

* Black-box entry subcircuit for sg13g2_or3_1 abstract view
.subckt sg13g2_or3_1 X A B C VDD VSS
.ends

* Black-box entry subcircuit for sg13g2_mux2_1 abstract view
.subckt sg13g2_mux2_1 X A0 A1 S VDD VSS
.ends

* Black-box entry subcircuit for sg13g2_dlygate4sd3_1 abstract view
.subckt sg13g2_dlygate4sd3_1 X A VDD VSS
.ends

* Black-box entry subcircuit for sg13g2_buf_1 abstract view
.subckt sg13g2_buf_1 X A VDD VSS
.ends

* Black-box entry subcircuit for sg13g2_tiehi abstract view
.subckt sg13g2_tiehi L_HI VDD VSS
.ends

* Black-box entry subcircuit for sg13g2_o21ai_1 abstract view
.subckt sg13g2_o21ai_1 Y A1 A2 B1 VDD VSS
.ends

* Black-box entry subcircuit for sg13g2_nor3_2 abstract view
.subckt sg13g2_nor3_2 Y A B C VDD VSS
.ends

* Black-box entry subcircuit for sg13g2_fill_2 abstract view
.subckt sg13g2_fill_2 VDD VSS
.ends

* Black-box entry subcircuit for sg13g2_fill_1 abstract view
.subckt sg13g2_fill_1 VDD VSS
.ends

* Black-box entry subcircuit for sg13g2_nand3_1 abstract view
.subckt sg13g2_nand3_1 Y A B C VDD VSS
.ends

* Black-box entry subcircuit for sg13g2_inv_1 abstract view
.subckt sg13g2_inv_1 Y A VDD VSS
.ends

* Black-box entry subcircuit for sg13g2_decap_4 abstract view
.subckt sg13g2_decap_4 VDD VSS
.ends

* Black-box entry subcircuit for sg13g2_a21oi_1 abstract view
.subckt sg13g2_a21oi_1 Y A1 A2 B1 VDD VSS
.ends

* Black-box entry subcircuit for sg13g2_nor2_1 abstract view
.subckt sg13g2_nor2_1 Y A B VDD VSS
.ends

* Black-box entry subcircuit for sg13g2_and2_1 abstract view
.subckt sg13g2_and2_1 X A B VDD VSS
.ends

* Black-box entry subcircuit for sg13g2_nand2_1 abstract view
.subckt sg13g2_nand2_1 Y A B VDD VSS
.ends

* Black-box entry subcircuit for sg13g2_nand4_1 abstract view
.subckt sg13g2_nand4_1 Y A B C D VDD VSS
.ends

* Black-box entry subcircuit for sg13g2_buf_16 abstract view
.subckt sg13g2_buf_16 X A VDD VSS
.ends

* Black-box entry subcircuit for sg13g2_dfrbpq_1 abstract view
.subckt sg13g2_dfrbpq_1 Q CLK D RESET_B VDD VSS
.ends

* Black-box entry subcircuit for sg13g2_xor2_1 abstract view
.subckt sg13g2_xor2_1 X A B VDD VSS
.ends

* Black-box entry subcircuit for sg13g2_buf_4 abstract view
.subckt sg13g2_buf_4 X A VDD VSS
.ends

* Black-box entry subcircuit for sg13g2_xnor2_1 abstract view
.subckt sg13g2_xnor2_1 Y A B VDD VSS
.ends

.subckt counter_top VDD VSS clock_i counter_value_o[0] counter_value_o[1] counter_value_o[2]
+ counter_value_o[3] counter_value_o[4] counter_value_o[5] counter_value_o[6] counter_value_o[7]
+ enable_i reset_n_i
XFILLER_39_266 VDD VSS sg13g2_decap_8
XFILLER_22_144 VDD VSS sg13g2_decap_8
XFILLER_7_7 VDD VSS sg13g2_decap_8
XFILLER_13_133 VDD VSS sg13g2_decap_8
XFILLER_26_63 VDD VSS sg13g2_decap_8
XFILLER_9_126 VDD VSS sg13g2_decap_8
XFILLER_42_84 VDD VSS sg13g2_decap_8
XFILLER_5_354 VDD VSS sg13g2_decap_8
XFILLER_3_56 VDD VSS sg13g2_decap_8
XFILLER_36_203 VDD VSS sg13g2_decap_8
XFILLER_42_217 VDD VSS sg13g2_decap_8
XFILLER_35_280 VDD VSS sg13g2_decap_8
XFILLER_27_203 VDD VSS sg13g2_decap_8
XFILLER_10_147 VDD VSS sg13g2_decap_8
XFILLER_12_21 VDD VSS sg13g2_decap_8
XFILLER_12_98 VDD VSS sg13g2_decap_8
XFILLER_5_4 VDD VSS sg13g2_decap_8
XFILLER_2_357 VDD VSS sg13g2_decap_8
XFILLER_18_203 VDD VSS sg13g2_decap_8
XFILLER_37_84 VDD VSS sg13g2_decap_8
XFILLER_33_217 VDD VSS sg13g2_decap_8
XFILLER_26_280 VDD VSS sg13g2_decap_8
XFILLER_5_151 VDD VSS sg13g2_decap_8
XFILLER_41_294 VDD VSS sg13g2_decap_8
XFILLER_17_280 VDD VSS sg13g2_decap_8
XFILLER_24_217 VDD VSS sg13g2_decap_8
X_66_ _66_/X _66_/A _66_/B _66_/C VDD VSS sg13g2_or3_1
XFILLER_32_294 VDD VSS sg13g2_decap_8
XFILLER_15_217 VDD VSS sg13g2_decap_8
XFILLER_23_294 VDD VSS sg13g2_decap_8
XFILLER_23_42 VDD VSS sg13g2_decap_8
XFILLER_2_154 VDD VSS sg13g2_decap_8
XFILLER_0_35 VDD VSS sg13g2_decap_8
XFILLER_14_294 VDD VSS sg13g2_decap_8
XFILLER_9_77 VDD VSS sg13g2_decap_8
XFILLER_29_0 VDD VSS sg13g2_decap_8
X_49_ _75_/D _45_/X _46_/Y _49_/S VDD VSS sg13g2_mux2_1
XFILLER_37_364 VDD VSS sg13g2_decap_8
XFILLER_20_231 VDD VSS sg13g2_decap_8
XFILLER_18_42 VDD VSS sg13g2_decap_8
XFILLER_43_301 VDD VSS sg13g2_decap_8
XFILLER_11_231 VDD VSS sg13g2_decap_8
XFILLER_43_378 VDD VSS sg13g2_decap_8
XFILLER_34_63 VDD VSS sg13g2_decap_8
XFILLER_7_224 VDD VSS sg13g2_decap_8
XFILLER_34_378 VDD VSS sg13g2_decap_8
XFILLER_34_301 VDD VSS sg13g2_decap_8
XFILLER_25_301 VDD VSS sg13g2_decap_8
XFILLER_37_161 VDD VSS sg13g2_decap_8
XFILLER_40_315 VDD VSS sg13g2_decap_8
XFILLER_20_21 VDD VSS sg13g2_decap_8
XFILLER_4_238 VDD VSS sg13g2_decap_8
XFILLER_20_98 VDD VSS sg13g2_decap_8
Xhold30 _58_/A _71_/Q VDD VSS sg13g2_dlygate4sd3_1
XFILLER_29_63 VDD VSS sg13g2_decap_8
XFILLER_16_301 VDD VSS sg13g2_decap_8
XFILLER_43_175 VDD VSS sg13g2_decap_8
XFILLER_31_315 VDD VSS sg13g2_decap_8
XFILLER_28_161 VDD VSS sg13g2_decap_8
XFILLER_6_56 VDD VSS sg13g2_decap_8
XFILLER_19_161 VDD VSS sg13g2_decap_8
XFILLER_22_326 VDD VSS sg13g2_decap_8
XFILLER_34_175 VDD VSS sg13g2_decap_8
XFILLER_30_381 VDD VSS sg13g2_decap_8
XFILLER_13_315 VDD VSS sg13g2_decap_8
XFILLER_15_21 VDD VSS sg13g2_decap_8
XFILLER_25_175 VDD VSS sg13g2_decap_8
XFILLER_15_98 VDD VSS sg13g2_decap_8
XFILLER_9_308 VDD VSS sg13g2_decap_8
XFILLER_40_189 VDD VSS sg13g2_decap_8
XFILLER_40_112 VDD VSS sg13g2_decap_8
XFILLER_31_42 VDD VSS sg13g2_decap_8
Xoutput7 counter_value_o[4] _72_/Q VDD VSS sg13g2_buf_1
XFILLER_0_252 VDD VSS sg13g2_decap_8
XFILLER_16_175 VDD VSS sg13g2_decap_8
XFILLER_31_112 VDD VSS sg13g2_decap_8
XFILLER_8_385 VDD VSS sg13g2_decap_8
XFILLER_31_189 VDD VSS sg13g2_decap_8
XFILLER_11_0 VDD VSS sg13g2_decap_8
XFILLER_39_245 VDD VSS sg13g2_decap_8
XFILLER_10_329 VDD VSS sg13g2_decap_8
XFILLER_22_123 VDD VSS sg13g2_decap_8
X_75__14 _75__14/L_HI VDD VSS sg13g2_tiehi
XFILLER_13_112 VDD VSS sg13g2_decap_8
XFILLER_9_105 VDD VSS sg13g2_decap_8
XFILLER_26_42 VDD VSS sg13g2_decap_8
XFILLER_13_189 VDD VSS sg13g2_decap_8
XFILLER_5_333 VDD VSS sg13g2_decap_8
XFILLER_42_63 VDD VSS sg13g2_decap_8
XFILLER_3_35 VDD VSS sg13g2_decap_8
XFILLER_36_259 VDD VSS sg13g2_decap_8
XFILLER_8_182 VDD VSS sg13g2_decap_8
X_72__17 _72__17/L_HI VDD VSS sg13g2_tiehi
XFILLER_27_259 VDD VSS sg13g2_decap_8
XFILLER_10_126 VDD VSS sg13g2_decap_8
XFILLER_12_77 VDD VSS sg13g2_decap_8
XFILLER_6_119 VDD VSS sg13g2_decap_8
XFILLER_2_336 VDD VSS sg13g2_decap_8
XFILLER_18_259 VDD VSS sg13g2_decap_8
XFILLER_37_63 VDD VSS sg13g2_decap_8
XFILLER_41_273 VDD VSS sg13g2_decap_8
XFILLER_5_130 VDD VSS sg13g2_decap_8
X_65_ _65_/Y _66_/B _66_/C _66_/A VDD VSS sg13g2_o21ai_1
XFILLER_32_273 VDD VSS sg13g2_decap_8
XFILLER_23_21 VDD VSS sg13g2_decap_8
XFILLER_23_273 VDD VSS sg13g2_decap_8
XFILLER_23_98 VDD VSS sg13g2_decap_8
XFILLER_2_133 VDD VSS sg13g2_decap_8
XFILLER_0_14 VDD VSS sg13g2_decap_8
XFILLER_14_273 VDD VSS sg13g2_decap_8
XFILLER_9_56 VDD VSS sg13g2_decap_8
X_48_ _49_/S _48_/A _66_/B _48_/C VDD VSS sg13g2_nor3_2
XFILLER_37_343 VDD VSS sg13g2_decap_8
XFILLER_20_210 VDD VSS sg13g2_decap_8
XFILLER_20_287 VDD VSS sg13g2_decap_8
XFILLER_18_21 VDD VSS sg13g2_decap_8
XFILLER_18_98 VDD VSS sg13g2_decap_8
XFILLER_43_357 VDD VSS sg13g2_decap_8
XFILLER_11_210 VDD VSS sg13g2_decap_8
XFILLER_11_287 VDD VSS sg13g2_decap_8
XFILLER_7_203 VDD VSS sg13g2_decap_8
XFILLER_34_42 VDD VSS sg13g2_decap_8
XFILLER_15_7 VDD VSS sg13g2_decap_8
XFILLER_19_343 VDD VSS sg13g2_decap_8
XFILLER_19_354 VDD VSS sg13g2_fill_2
XFILLER_19_387 VDD VSS sg13g2_fill_1
XFILLER_34_357 VDD VSS sg13g2_decap_8
XFILLER_6_280 VDD VSS sg13g2_decap_8
XFILLER_41_0 VDD VSS sg13g2_decap_8
XFILLER_37_140 VDD VSS sg13g2_decap_8
XFILLER_25_357 VDD VSS sg13g2_fill_2
XFILLER_20_77 VDD VSS sg13g2_decap_8
XFILLER_4_217 VDD VSS sg13g2_decap_8
Xhold31 _59_/B _58_/X VDD VSS sg13g2_dlygate4sd3_1
Xhold20 _67_/A1 _65_/Y VDD VSS sg13g2_dlygate4sd3_1
XFILLER_29_42 VDD VSS sg13g2_decap_8
XFILLER_28_140 VDD VSS sg13g2_decap_8
XFILLER_16_357 VDD VSS sg13g2_fill_2
XFILLER_43_154 VDD VSS sg13g2_decap_8
XFILLER_6_35 VDD VSS sg13g2_decap_8
XFILLER_3_294 VDD VSS sg13g2_decap_8
XFILLER_19_140 VDD VSS sg13g2_decap_8
XFILLER_22_305 VDD VSS sg13g2_decap_8
XFILLER_22_349 VDD VSS sg13g2_fill_1
XFILLER_34_154 VDD VSS sg13g2_decap_8
XFILLER_25_154 VDD VSS sg13g2_decap_8
XFILLER_15_77 VDD VSS sg13g2_decap_8
XFILLER_40_168 VDD VSS sg13g2_decap_8
XFILLER_31_21 VDD VSS sg13g2_decap_8
XFILLER_0_231 VDD VSS sg13g2_decap_8
Xoutput8 counter_value_o[5] _73_/Q VDD VSS sg13g2_buf_1
Xoutput10 counter_value_o[7] _75_/Q VDD VSS sg13g2_buf_1
XFILLER_31_98 VDD VSS sg13g2_decap_8
XFILLER_16_154 VDD VSS sg13g2_decap_8
XFILLER_31_168 VDD VSS sg13g2_decap_8
XFILLER_8_364 VDD VSS sg13g2_decap_8
XFILLER_39_224 VDD VSS sg13g2_decap_8
XFILLER_22_102 VDD VSS sg13g2_decap_8
XFILLER_10_308 VDD VSS sg13g2_decap_8
XFILLER_22_179 VDD VSS sg13g2_decap_8
XFILLER_26_21 VDD VSS sg13g2_decap_8
XFILLER_13_168 VDD VSS sg13g2_decap_8
XFILLER_42_42 VDD VSS sg13g2_decap_8
XFILLER_26_98 VDD VSS sg13g2_decap_8
XFILLER_5_312 VDD VSS sg13g2_decap_8
XFILLER_5_389 VDD VSS sg13g2_fill_2
XFILLER_3_14 VDD VSS sg13g2_decap_8
XFILLER_36_238 VDD VSS sg13g2_decap_8
XFILLER_8_161 VDD VSS sg13g2_decap_8
XFILLER_27_238 VDD VSS sg13g2_decap_8
XFILLER_10_105 VDD VSS sg13g2_decap_8
XFILLER_12_56 VDD VSS sg13g2_decap_8
XFILLER_2_315 VDD VSS sg13g2_decap_8
XFILLER_18_238 VDD VSS sg13g2_decap_8
XFILLER_37_42 VDD VSS sg13g2_decap_8
XFILLER_41_252 VDD VSS sg13g2_decap_8
XFILLER_5_186 VDD VSS sg13g2_decap_8
X_64_ _66_/C _72_/Q _71_/Q _70_/Q VDD VSS sg13g2_nand3_1
XFILLER_32_252 VDD VSS sg13g2_decap_8
XFILLER_23_252 VDD VSS sg13g2_decap_8
XFILLER_23_77 VDD VSS sg13g2_decap_8
XFILLER_2_112 VDD VSS sg13g2_decap_8
XFILLER_2_189 VDD VSS sg13g2_decap_8
XFILLER_14_252 VDD VSS sg13g2_decap_8
XFILLER_9_35 VDD VSS sg13g2_decap_8
X_47_ _48_/A _47_/A VDD VSS sg13g2_inv_1
XFILLER_37_322 VDD VSS sg13g2_decap_8
XFILLER_20_266 VDD VSS sg13g2_decap_8
XFILLER_28_322 VDD VSS sg13g2_decap_8
XFILLER_18_77 VDD VSS sg13g2_decap_8
XFILLER_43_336 VDD VSS sg13g2_decap_8
XFILLER_34_21 VDD VSS sg13g2_decap_8
XFILLER_11_266 VDD VSS sg13g2_decap_8
XFILLER_7_259 VDD VSS sg13g2_decap_8
XFILLER_34_98 VDD VSS sg13g2_decap_8
XFILLER_1_0 VDD VSS sg13g2_decap_8
XFILLER_19_322 VDD VSS sg13g2_decap_8
XFILLER_38_119 VDD VSS sg13g2_decap_8
XFILLER_34_336 VDD VSS sg13g2_decap_8
XFILLER_34_0 VDD VSS sg13g2_decap_8
XFILLER_29_119 VDD VSS sg13g2_decap_8
XFILLER_1_91 VDD VSS sg13g2_decap_8
XFILLER_25_336 VDD VSS sg13g2_decap_8
XFILLER_37_196 VDD VSS sg13g2_decap_8
XFILLER_20_56 VDD VSS sg13g2_decap_8
Xhold32 _50_/B _68_/Q VDD VSS sg13g2_dlygate4sd3_1
Xhold21 _73_/D _67_/Y VDD VSS sg13g2_dlygate4sd3_1
XFILLER_29_98 VDD VSS sg13g2_decap_8
XFILLER_29_21 VDD VSS sg13g2_decap_8
XFILLER_16_336 VDD VSS sg13g2_decap_8
XFILLER_24_391 VDD VSS sg13g2_fill_1
XFILLER_43_133 VDD VSS sg13g2_decap_8
XFILLER_28_196 VDD VSS sg13g2_decap_8
XFILLER_6_14 VDD VSS sg13g2_decap_8
XFILLER_3_273 VDD VSS sg13g2_decap_8
XFILLER_19_196 VDD VSS sg13g2_decap_8
XFILLER_34_133 VDD VSS sg13g2_decap_8
XFILLER_30_350 VDD VSS sg13g2_decap_4
XFILLER_15_56 VDD VSS sg13g2_decap_8
XFILLER_25_133 VDD VSS sg13g2_decap_8
XFILLER_40_147 VDD VSS sg13g2_decap_8
XFILLER_21_350 VDD VSS sg13g2_decap_4
XFILLER_31_77 VDD VSS sg13g2_decap_8
XFILLER_0_210 VDD VSS sg13g2_decap_8
XFILLER_0_287 VDD VSS sg13g2_decap_8
Xoutput9 counter_value_o[6] _74_/Q VDD VSS sg13g2_buf_1
XFILLER_16_133 VDD VSS sg13g2_decap_8
XFILLER_8_343 VDD VSS sg13g2_decap_8
XFILLER_31_147 VDD VSS sg13g2_decap_8
XFILLER_39_203 VDD VSS sg13g2_decap_8
XFILLER_22_158 VDD VSS sg13g2_decap_8
XFILLER_38_280 VDD VSS sg13g2_decap_8
XFILLER_13_147 VDD VSS sg13g2_decap_8
XFILLER_42_21 VDD VSS sg13g2_decap_8
XFILLER_26_77 VDD VSS sg13g2_decap_8
XFILLER_5_368 VDD VSS sg13g2_decap_8
XFILLER_42_98 VDD VSS sg13g2_decap_8
XFILLER_36_217 VDD VSS sg13g2_decap_8
XFILLER_29_280 VDD VSS sg13g2_decap_8
XFILLER_8_140 VDD VSS sg13g2_decap_8
XFILLER_27_217 VDD VSS sg13g2_decap_8
XFILLER_35_294 VDD VSS sg13g2_decap_8
XFILLER_12_35 VDD VSS sg13g2_decap_8
XFILLER_37_21 VDD VSS sg13g2_decap_8
XFILLER_18_217 VDD VSS sg13g2_decap_8
XFILLER_41_231 VDD VSS sg13g2_decap_8
XFILLER_37_98 VDD VSS sg13g2_decap_8
XFILLER_26_294 VDD VSS sg13g2_decap_8
XFILLER_1_371 VDD VSS sg13g2_decap_8
XFILLER_5_165 VDD VSS sg13g2_decap_8
XFILLER_38_7 VDD VSS sg13g2_decap_8
X_63_ _63_/Y _63_/A1 _62_/X _59_/A VDD VSS sg13g2_a21oi_1
XFILLER_17_294 VDD VSS sg13g2_decap_8
XFILLER_32_231 VDD VSS sg13g2_decap_8
XFILLER_4_91 VDD VSS sg13g2_decap_8
XFILLER_23_231 VDD VSS sg13g2_decap_8
XFILLER_23_56 VDD VSS sg13g2_decap_8
XFILLER_2_168 VDD VSS sg13g2_decap_8
XFILLER_0_49 VDD VSS sg13g2_decap_8
XFILLER_14_231 VDD VSS sg13g2_decap_8
XFILLER_9_14 VDD VSS sg13g2_decap_8
X_46_ _46_/Y _46_/A _59_/A VDD VSS sg13g2_nor2_1
XFILLER_37_378 VDD VSS sg13g2_decap_8
XFILLER_37_301 VDD VSS sg13g2_decap_8
XFILLER_20_245 VDD VSS sg13g2_decap_8
XFILLER_18_56 VDD VSS sg13g2_decap_8
XFILLER_28_301 VDD VSS sg13g2_decap_8
XFILLER_43_315 VDD VSS sg13g2_decap_8
XFILLER_34_77 VDD VSS sg13g2_decap_8
XFILLER_28_389 VDD VSS sg13g2_fill_2
XFILLER_11_245 VDD VSS sg13g2_decap_8
XFILLER_7_238 VDD VSS sg13g2_decap_8
XFILLER_19_301 VDD VSS sg13g2_decap_8
XFILLER_34_315 VDD VSS sg13g2_decap_8
XFILLER_27_0 VDD VSS sg13g2_decap_8
XFILLER_1_70 VDD VSS sg13g2_decap_8
XFILLER_25_315 VDD VSS sg13g2_decap_8
XFILLER_40_329 VDD VSS sg13g2_decap_8
XFILLER_37_175 VDD VSS sg13g2_decap_8
XFILLER_25_359 VDD VSS sg13g2_fill_1
XFILLER_20_35 VDD VSS sg13g2_decap_8
Xhold22 _47_/A _74_/Q VDD VSS sg13g2_dlygate4sd3_1
XFILLER_16_315 VDD VSS sg13g2_decap_8
Xhold33 _55_/A _70_/Q VDD VSS sg13g2_dlygate4sd3_1
XFILLER_43_112 VDD VSS sg13g2_decap_8
XFILLER_29_77 VDD VSS sg13g2_decap_8
XFILLER_28_175 VDD VSS sg13g2_decap_8
XFILLER_43_189 VDD VSS sg13g2_decap_8
XFILLER_31_329 VDD VSS sg13g2_decap_8
XFILLER_3_252 VDD VSS sg13g2_decap_8
XFILLER_20_7 VDD VSS sg13g2_decap_8
XFILLER_19_175 VDD VSS sg13g2_decap_8
XFILLER_34_189 VDD VSS sg13g2_decap_8
XFILLER_34_112 VDD VSS sg13g2_decap_8
XFILLER_25_112 VDD VSS sg13g2_decap_8
XFILLER_13_329 VDD VSS sg13g2_decap_8
XFILLER_15_35 VDD VSS sg13g2_decap_8
XFILLER_25_189 VDD VSS sg13g2_decap_8
XFILLER_40_126 VDD VSS sg13g2_decap_8
XFILLER_31_56 VDD VSS sg13g2_decap_8
XFILLER_0_266 VDD VSS sg13g2_decap_8
XFILLER_16_112 VDD VSS sg13g2_decap_8
XFILLER_16_189 VDD VSS sg13g2_decap_8
XFILLER_8_322 VDD VSS sg13g2_decap_8
XFILLER_31_126 VDD VSS sg13g2_decap_8
XFILLER_39_259 VDD VSS sg13g2_decap_8
XFILLER_22_137 VDD VSS sg13g2_decap_8
XFILLER_7_91 VDD VSS sg13g2_decap_8
XFILLER_26_56 VDD VSS sg13g2_decap_8
XFILLER_13_126 VDD VSS sg13g2_decap_8
XFILLER_9_119 VDD VSS sg13g2_decap_8
XFILLER_42_77 VDD VSS sg13g2_decap_8
XFILLER_5_347 VDD VSS sg13g2_decap_8
XFILLER_3_49 VDD VSS sg13g2_decap_8
XFILLER_8_196 VDD VSS sg13g2_decap_8
XFILLER_35_273 VDD VSS sg13g2_decap_8
XFILLER_12_14 VDD VSS sg13g2_decap_8
XFILLER_41_210 VDD VSS sg13g2_decap_8
XFILLER_37_77 VDD VSS sg13g2_decap_8
XFILLER_26_273 VDD VSS sg13g2_decap_8
XFILLER_5_144 VDD VSS sg13g2_decap_8
XFILLER_41_287 VDD VSS sg13g2_decap_8
XFILLER_1_350 VDD VSS sg13g2_decap_8
XFILLER_17_273 VDD VSS sg13g2_decap_8
X_62_ _62_/X _62_/A _66_/B _62_/C VDD VSS sg13g2_or3_1
XFILLER_32_287 VDD VSS sg13g2_decap_8
XFILLER_32_210 VDD VSS sg13g2_decap_8
XFILLER_4_70 VDD VSS sg13g2_decap_8
XFILLER_23_210 VDD VSS sg13g2_decap_8
XFILLER_23_287 VDD VSS sg13g2_decap_8
XFILLER_23_35 VDD VSS sg13g2_decap_8
XFILLER_2_147 VDD VSS sg13g2_decap_8
XFILLER_0_28 VDD VSS sg13g2_decap_8
XFILLER_14_210 VDD VSS sg13g2_decap_8
XFILLER_14_287 VDD VSS sg13g2_decap_8
X_45_ _45_/X _46_/A _45_/B VDD VSS sg13g2_and2_1
XFILLER_37_357 VDD VSS sg13g2_decap_8
XFILLER_20_224 VDD VSS sg13g2_decap_8
XFILLER_9_280 VDD VSS sg13g2_decap_8
XFILLER_18_35 VDD VSS sg13g2_decap_8
XFILLER_11_224 VDD VSS sg13g2_decap_8
XFILLER_34_56 VDD VSS sg13g2_decap_8
XFILLER_7_217 VDD VSS sg13g2_decap_8
XFILLER_19_368 VDD VSS sg13g2_fill_2
XFILLER_42_371 VDD VSS sg13g2_decap_8
XFILLER_6_294 VDD VSS sg13g2_decap_8
XFILLER_37_154 VDD VSS sg13g2_decap_8
XFILLER_40_308 VDD VSS sg13g2_decap_8
XFILLER_33_371 VDD VSS sg13g2_decap_8
XFILLER_20_14 VDD VSS sg13g2_decap_8
Xhold34 _46_/A _75_/Q VDD VSS sg13g2_dlygate4sd3_1
Xhold23 _44_/A1 _41_/Y VDD VSS sg13g2_dlygate4sd3_1
XFILLER_29_56 VDD VSS sg13g2_decap_8
XFILLER_43_168 VDD VSS sg13g2_decap_8
XFILLER_31_308 VDD VSS sg13g2_decap_8
XFILLER_28_154 VDD VSS sg13g2_decap_8
XFILLER_10_91 VDD VSS sg13g2_decap_8
XFILLER_6_49 VDD VSS sg13g2_decap_8
XFILLER_3_231 VDD VSS sg13g2_decap_8
XFILLER_13_7 VDD VSS sg13g2_decap_8
XFILLER_19_154 VDD VSS sg13g2_decap_8
XFILLER_22_319 VDD VSS sg13g2_decap_8
XFILLER_34_168 VDD VSS sg13g2_decap_8
XFILLER_15_14 VDD VSS sg13g2_decap_8
XFILLER_13_308 VDD VSS sg13g2_decap_8
XFILLER_25_168 VDD VSS sg13g2_decap_8
XFILLER_40_105 VDD VSS sg13g2_decap_8
XFILLER_31_35 VDD VSS sg13g2_decap_8
XFILLER_0_245 VDD VSS sg13g2_decap_8
XFILLER_16_168 VDD VSS sg13g2_decap_8
XFILLER_31_105 VDD VSS sg13g2_decap_8
XFILLER_12_385 VDD VSS sg13g2_decap_8
XFILLER_8_301 VDD VSS sg13g2_decap_8
XFILLER_8_378 VDD VSS sg13g2_decap_8
XFILLER_39_238 VDD VSS sg13g2_decap_8
XFILLER_22_116 VDD VSS sg13g2_decap_8
XFILLER_30_182 VDD VSS sg13g2_decap_8
XFILLER_7_70 VDD VSS sg13g2_decap_8
XFILLER_13_105 VDD VSS sg13g2_decap_8
XFILLER_26_35 VDD VSS sg13g2_decap_8
XFILLER_21_182 VDD VSS sg13g2_decap_8
XFILLER_5_326 VDD VSS sg13g2_decap_8
XFILLER_42_56 VDD VSS sg13g2_decap_8
XFILLER_3_28 VDD VSS sg13g2_decap_8
XFILLER_12_182 VDD VSS sg13g2_decap_8
XFILLER_8_175 VDD VSS sg13g2_decap_8
XFILLER_35_252 VDD VSS sg13g2_decap_8
XFILLER_10_119 VDD VSS sg13g2_decap_8
XFILLER_2_329 VDD VSS sg13g2_decap_8
XFILLER_37_56 VDD VSS sg13g2_decap_8
XFILLER_41_266 VDD VSS sg13g2_decap_8
XFILLER_26_252 VDD VSS sg13g2_decap_8
XFILLER_5_123 VDD VSS sg13g2_decap_8
X_61_ _61_/Y _66_/B _62_/C _62_/A VDD VSS sg13g2_o21ai_1
XFILLER_17_252 VDD VSS sg13g2_decap_8
XFILLER_32_266 VDD VSS sg13g2_decap_8
XFILLER_23_14 VDD VSS sg13g2_decap_8
XFILLER_23_266 VDD VSS sg13g2_decap_8
XFILLER_2_126 VDD VSS sg13g2_decap_8
XFILLER_14_266 VDD VSS sg13g2_decap_8
XFILLER_9_49 VDD VSS sg13g2_decap_8
XFILLER_13_91 VDD VSS sg13g2_decap_8
XFILLER_43_7 VDD VSS sg13g2_decap_8
X_44_ _44_/Y _44_/A1 _42_/X _59_/A VDD VSS sg13g2_a21oi_1
XFILLER_37_336 VDD VSS sg13g2_decap_8
XFILLER_20_203 VDD VSS sg13g2_decap_8
XFILLER_18_14 VDD VSS sg13g2_decap_8
XFILLER_28_336 VDD VSS sg13g2_decap_4
XFILLER_11_203 VDD VSS sg13g2_decap_8
XFILLER_34_35 VDD VSS sg13g2_decap_8
XFILLER_19_336 VDD VSS sg13g2_decap_8
XFILLER_42_350 VDD VSS sg13g2_decap_8
XFILLER_27_391 VDD VSS sg13g2_fill_1
XFILLER_10_280 VDD VSS sg13g2_decap_8
XFILLER_6_273 VDD VSS sg13g2_decap_8
XFILLER_37_133 VDD VSS sg13g2_decap_8
XFILLER_18_391 VDD VSS sg13g2_fill_1
XFILLER_33_350 VDD VSS sg13g2_decap_8
Xhold24 _74_/D _44_/Y VDD VSS sg13g2_dlygate4sd3_1
XFILLER_29_35 VDD VSS sg13g2_decap_8
XFILLER_43_147 VDD VSS sg13g2_decap_8
XFILLER_28_133 VDD VSS sg13g2_decap_8
XFILLER_6_28 VDD VSS sg13g2_decap_8
XFILLER_10_70 VDD VSS sg13g2_decap_8
XFILLER_3_287 VDD VSS sg13g2_decap_8
XFILLER_3_210 VDD VSS sg13g2_decap_8
XFILLER_19_133 VDD VSS sg13g2_decap_8
XFILLER_15_350 VDD VSS sg13g2_decap_4
XFILLER_34_147 VDD VSS sg13g2_decap_8
XFILLER_32_0 VDD VSS sg13g2_decap_8
XFILLER_25_147 VDD VSS sg13g2_decap_8
XFILLER_31_14 VDD VSS sg13g2_decap_8
XFILLER_0_224 VDD VSS sg13g2_decap_8
XFILLER_16_147 VDD VSS sg13g2_decap_8
XFILLER_21_91 VDD VSS sg13g2_decap_8
XFILLER_8_357 VDD VSS sg13g2_decap_8
XFILLER_39_217 VDD VSS sg13g2_decap_8
XFILLER_30_161 VDD VSS sg13g2_decap_8
XFILLER_26_14 VDD VSS sg13g2_decap_8
XFILLER_42_35 VDD VSS sg13g2_decap_8
XFILLER_38_294 VDD VSS sg13g2_decap_8
XFILLER_21_161 VDD VSS sg13g2_decap_8
XFILLER_5_305 VDD VSS sg13g2_decap_8
XFILLER_29_294 VDD VSS sg13g2_decap_8
XFILLER_12_161 VDD VSS sg13g2_decap_8
XFILLER_16_91 VDD VSS sg13g2_decap_8
XFILLER_8_154 VDD VSS sg13g2_decap_8
XFILLER_4_371 VDD VSS sg13g2_decap_8
XFILLER_35_231 VDD VSS sg13g2_decap_8
XFILLER_12_49 VDD VSS sg13g2_decap_8
XFILLER_2_308 VDD VSS sg13g2_decap_8
XFILLER_37_35 VDD VSS sg13g2_decap_8
XFILLER_26_231 VDD VSS sg13g2_decap_8
XFILLER_41_245 VDD VSS sg13g2_decap_8
XFILLER_5_102 VDD VSS sg13g2_decap_8
XFILLER_5_179 VDD VSS sg13g2_decap_8
XFILLER_1_385 VDD VSS sg13g2_decap_8
X_60_ _62_/C _71_/Q _70_/Q VDD VSS sg13g2_nand2_1
XFILLER_17_231 VDD VSS sg13g2_decap_8
XFILLER_32_245 VDD VSS sg13g2_decap_8
XFILLER_23_245 VDD VSS sg13g2_decap_8
XFILLER_3_7 VDD VSS sg13g2_decap_8
XFILLER_2_105 VDD VSS sg13g2_decap_8
XFILLER_14_245 VDD VSS sg13g2_decap_8
XFILLER_13_70 VDD VSS sg13g2_decap_8
XFILLER_9_28 VDD VSS sg13g2_decap_8
XFILLER_36_7 VDD VSS sg13g2_decap_8
XFILLER_1_182 VDD VSS sg13g2_decap_8
X_43_ _59_/A _45_/B VDD VSS sg13g2_inv_1
XFILLER_37_315 VDD VSS sg13g2_decap_8
XFILLER_20_259 VDD VSS sg13g2_decap_8
XFILLER_28_315 VDD VSS sg13g2_decap_8
XFILLER_43_329 VDD VSS sg13g2_decap_8
XFILLER_34_14 VDD VSS sg13g2_decap_8
XFILLER_11_259 VDD VSS sg13g2_decap_8
XFILLER_19_315 VDD VSS sg13g2_decap_8
XFILLER_34_329 VDD VSS sg13g2_decap_8
XFILLER_24_91 VDD VSS sg13g2_decap_8
XFILLER_6_252 VDD VSS sg13g2_decap_8
XFILLER_1_84 VDD VSS sg13g2_decap_8
XFILLER_25_329 VDD VSS sg13g2_decap_8
XFILLER_37_189 VDD VSS sg13g2_decap_8
XFILLER_37_112 VDD VSS sg13g2_decap_8
XFILLER_20_49 VDD VSS sg13g2_decap_8
Xhold25 _62_/A _72_/Q VDD VSS sg13g2_dlygate4sd3_1
XFILLER_29_14 VDD VSS sg13g2_decap_8
XFILLER_28_112 VDD VSS sg13g2_decap_8
XFILLER_16_329 VDD VSS sg13g2_decap_8
XFILLER_43_126 VDD VSS sg13g2_decap_8
XFILLER_28_189 VDD VSS sg13g2_decap_8
XFILLER_3_266 VDD VSS sg13g2_decap_8
XFILLER_19_112 VDD VSS sg13g2_decap_8
XFILLER_19_189 VDD VSS sg13g2_decap_8
XFILLER_19_91 VDD VSS sg13g2_decap_8
XFILLER_34_126 VDD VSS sg13g2_decap_8
XFILLER_30_343 VDD VSS sg13g2_decap_8
XFILLER_25_0 VDD VSS sg13g2_decap_8
XFILLER_15_49 VDD VSS sg13g2_decap_8
XFILLER_25_126 VDD VSS sg13g2_decap_8
XFILLER_21_343 VDD VSS sg13g2_decap_8
XFILLER_21_354 VDD VSS sg13g2_fill_1
XFILLER_0_203 VDD VSS sg13g2_decap_8
XFILLER_16_126 VDD VSS sg13g2_decap_8
XFILLER_12_343 VDD VSS sg13g2_decap_8
XFILLER_8_336 VDD VSS sg13g2_decap_8
XFILLER_21_70 VDD VSS sg13g2_decap_8
XFILLER_30_140 VDD VSS sg13g2_decap_8
XFILLER_38_273 VDD VSS sg13g2_decap_8
XFILLER_21_140 VDD VSS sg13g2_decap_8
XFILLER_42_14 VDD VSS sg13g2_decap_8
XFILLER_16_70 VDD VSS sg13g2_decap_8
XFILLER_29_273 VDD VSS sg13g2_decap_8
XFILLER_12_140 VDD VSS sg13g2_decap_8
XFILLER_8_133 VDD VSS sg13g2_decap_8
XFILLER_32_91 VDD VSS sg13g2_decap_8
XFILLER_4_350 VDD VSS sg13g2_decap_8
XFILLER_35_210 VDD VSS sg13g2_decap_8
XFILLER_35_287 VDD VSS sg13g2_decap_8
XFILLER_12_28 VDD VSS sg13g2_decap_8
XFILLER_37_14 VDD VSS sg13g2_decap_8
XFILLER_41_224 VDD VSS sg13g2_decap_8
XFILLER_26_287 VDD VSS sg13g2_decap_8
XFILLER_26_210 VDD VSS sg13g2_decap_8
XFILLER_5_158 VDD VSS sg13g2_decap_8
XFILLER_17_210 VDD VSS sg13g2_decap_8
XFILLER_1_364 VDD VSS sg13g2_decap_8
XFILLER_17_287 VDD VSS sg13g2_decap_8
XFILLER_32_224 VDD VSS sg13g2_decap_8
XFILLER_27_91 VDD VSS sg13g2_decap_8
XFILLER_4_84 VDD VSS sg13g2_decap_8
XFILLER_23_224 VDD VSS sg13g2_decap_8
XFILLER_23_49 VDD VSS sg13g2_decap_8
XFILLER_14_224 VDD VSS sg13g2_decap_8
XFILLER_1_161 VDD VSS sg13g2_decap_8
XFILLER_29_7 VDD VSS sg13g2_decap_8
X_42_ _42_/X _47_/A _66_/B _48_/C VDD VSS sg13g2_or3_1
XFILLER_20_238 VDD VSS sg13g2_decap_8
XFILLER_9_294 VDD VSS sg13g2_decap_8
XFILLER_18_49 VDD VSS sg13g2_decap_8
XFILLER_43_308 VDD VSS sg13g2_decap_8
XFILLER_36_371 VDD VSS sg13g2_decap_8
XFILLER_11_238 VDD VSS sg13g2_decap_8
XFILLER_34_308 VDD VSS sg13g2_decap_8
XFILLER_24_70 VDD VSS sg13g2_decap_8
XFILLER_42_385 VDD VSS sg13g2_decap_8
XFILLER_27_382 VDD VSS sg13g2_decap_8
XFILLER_6_231 VDD VSS sg13g2_decap_8
XFILLER_40_91 VDD VSS sg13g2_decap_8
XFILLER_1_63 VDD VSS sg13g2_decap_8
XFILLER_25_308 VDD VSS sg13g2_decap_8
XFILLER_37_168 VDD VSS sg13g2_decap_8
XFILLER_33_385 VDD VSS sg13g2_decap_8
XFILLER_20_28 VDD VSS sg13g2_decap_8
XFILLER_16_308 VDD VSS sg13g2_decap_8
Xhold26 _63_/A1 _61_/Y VDD VSS sg13g2_dlygate4sd3_1
XFILLER_43_105 VDD VSS sg13g2_decap_8
XFILLER_28_168 VDD VSS sg13g2_decap_8
XFILLER_3_245 VDD VSS sg13g2_decap_8
XFILLER_19_168 VDD VSS sg13g2_decap_8
XFILLER_19_70 VDD VSS sg13g2_decap_8
XFILLER_34_105 VDD VSS sg13g2_decap_8
XFILLER_15_385 VDD VSS sg13g2_decap_8
XFILLER_42_182 VDD VSS sg13g2_decap_8
XFILLER_35_91 VDD VSS sg13g2_decap_8
XFILLER_30_388 VDD VSS sg13g2_decap_4
XFILLER_30_322 VDD VSS sg13g2_decap_8
XFILLER_18_0 VDD VSS sg13g2_decap_8
XFILLER_25_105 VDD VSS sg13g2_decap_8
XFILLER_15_28 VDD VSS sg13g2_decap_8
XFILLER_21_322 VDD VSS sg13g2_decap_8
XFILLER_40_119 VDD VSS sg13g2_decap_8
XFILLER_33_182 VDD VSS sg13g2_decap_8
XFILLER_21_366 VDD VSS sg13g2_fill_1
XFILLER_31_49 VDD VSS sg13g2_decap_8
XFILLER_0_259 VDD VSS sg13g2_decap_8
XFILLER_16_105 VDD VSS sg13g2_decap_8
XFILLER_12_322 VDD VSS sg13g2_decap_8
XFILLER_24_182 VDD VSS sg13g2_decap_8
XFILLER_8_315 VDD VSS sg13g2_decap_8
X_69__18 _69__18/L_HI VDD VSS sg13g2_tiehi
XFILLER_31_119 VDD VSS sg13g2_decap_8
XFILLER_11_7 VDD VSS sg13g2_decap_8
XFILLER_15_182 VDD VSS sg13g2_decap_8
XFILLER_7_84 VDD VSS sg13g2_decap_8
XFILLER_30_196 VDD VSS sg13g2_decap_8
XFILLER_38_252 VDD VSS sg13g2_decap_8
XFILLER_26_49 VDD VSS sg13g2_decap_8
XFILLER_13_119 VDD VSS sg13g2_decap_8
XFILLER_21_196 VDD VSS sg13g2_decap_8
XFILLER_29_252 VDD VSS sg13g2_decap_8
XFILLER_12_196 VDD VSS sg13g2_decap_8
XFILLER_8_112 VDD VSS sg13g2_decap_8
XFILLER_8_189 VDD VSS sg13g2_decap_8
XFILLER_32_70 VDD VSS sg13g2_decap_8
XFILLER_35_266 VDD VSS sg13g2_decap_8
X_71__13 _71__13/L_HI VDD VSS sg13g2_tiehi
XFILLER_41_203 VDD VSS sg13g2_decap_8
XFILLER_26_266 VDD VSS sg13g2_decap_8
XFILLER_5_137 VDD VSS sg13g2_decap_8
XFILLER_1_343 VDD VSS sg13g2_decap_8
XFILLER_27_70 VDD VSS sg13g2_decap_8
XFILLER_17_266 VDD VSS sg13g2_decap_8
XFILLER_43_91 VDD VSS sg13g2_decap_8
XFILLER_40_280 VDD VSS sg13g2_decap_8
XFILLER_32_203 VDD VSS sg13g2_decap_8
XFILLER_4_63 VDD VSS sg13g2_decap_8
XFILLER_23_203 VDD VSS sg13g2_decap_8
XFILLER_23_28 VDD VSS sg13g2_decap_8
XFILLER_31_280 VDD VSS sg13g2_decap_8
XFILLER_14_203 VDD VSS sg13g2_decap_8
XFILLER_22_291 VDD VSS sg13g2_decap_8
XFILLER_1_140 VDD VSS sg13g2_decap_8
X_41_ _41_/Y _66_/B _48_/C _47_/A VDD VSS sg13g2_o21ai_1
XFILLER_38_91 VDD VSS sg13g2_decap_8
XFILLER_13_280 VDD VSS sg13g2_decap_8
XFILLER_20_217 VDD VSS sg13g2_decap_8
XFILLER_9_273 VDD VSS sg13g2_decap_8
XFILLER_18_28 VDD VSS sg13g2_decap_8
XFILLER_11_217 VDD VSS sg13g2_decap_8
XFILLER_36_350 VDD VSS sg13g2_decap_8
XFILLER_34_49 VDD VSS sg13g2_decap_8
XFILLER_27_372 VDD VSS sg13g2_fill_1
XFILLER_6_210 VDD VSS sg13g2_decap_8
XFILLER_42_364 VDD VSS sg13g2_decap_8
XFILLER_10_294 VDD VSS sg13g2_decap_8
XFILLER_6_287 VDD VSS sg13g2_decap_8
XFILLER_41_7 VDD VSS sg13g2_decap_8
XFILLER_40_70 VDD VSS sg13g2_decap_8
XFILLER_1_42 VDD VSS sg13g2_decap_8
XFILLER_37_147 VDD VSS sg13g2_decap_8
XFILLER_33_364 VDD VSS sg13g2_decap_8
Xhold27 _72_/D _63_/Y VDD VSS sg13g2_dlygate4sd3_1
XFILLER_29_49 VDD VSS sg13g2_decap_8
XFILLER_28_147 VDD VSS sg13g2_decap_8
XFILLER_3_224 VDD VSS sg13g2_decap_8
XFILLER_10_84 VDD VSS sg13g2_decap_8
XFILLER_19_147 VDD VSS sg13g2_decap_8
XFILLER_42_161 VDD VSS sg13g2_decap_8
XFILLER_35_70 VDD VSS sg13g2_decap_8
XFILLER_30_301 VDD VSS sg13g2_decap_8
XFILLER_21_301 VDD VSS sg13g2_decap_8
XFILLER_33_161 VDD VSS sg13g2_decap_8
XFILLER_31_28 VDD VSS sg13g2_decap_8
XFILLER_0_238 VDD VSS sg13g2_decap_8
XFILLER_12_301 VDD VSS sg13g2_decap_8
XFILLER_24_161 VDD VSS sg13g2_decap_8
XFILLER_15_161 VDD VSS sg13g2_decap_8
XFILLER_22_109 VDD VSS sg13g2_decap_8
XFILLER_7_371 VDD VSS sg13g2_decap_8
XFILLER_7_63 VDD VSS sg13g2_decap_8
XFILLER_30_175 VDD VSS sg13g2_decap_8
XFILLER_30_0 VDD VSS sg13g2_decap_8
XFILLER_38_231 VDD VSS sg13g2_decap_8
XFILLER_26_28 VDD VSS sg13g2_decap_8
XFILLER_21_175 VDD VSS sg13g2_decap_8
XFILLER_5_319 VDD VSS sg13g2_decap_8
XFILLER_42_49 VDD VSS sg13g2_decap_8
XFILLER_29_231 VDD VSS sg13g2_decap_8
XFILLER_12_175 VDD VSS sg13g2_decap_8
XFILLER_8_168 VDD VSS sg13g2_decap_8
XFILLER_4_385 VDD VSS sg13g2_decap_8
XFILLER_35_245 VDD VSS sg13g2_decap_8
XFILLER_37_49 VDD VSS sg13g2_decap_8
XFILLER_41_259 VDD VSS sg13g2_decap_8
XFILLER_26_245 VDD VSS sg13g2_decap_8
XFILLER_5_116 VDD VSS sg13g2_decap_8
XFILLER_1_322 VDD VSS sg13g2_decap_8
XFILLER_17_245 VDD VSS sg13g2_decap_8
XFILLER_43_70 VDD VSS sg13g2_decap_8
XFILLER_32_259 VDD VSS sg13g2_decap_8
XFILLER_4_42 VDD VSS sg13g2_decap_8
XFILLER_4_182 VDD VSS sg13g2_decap_8
XFILLER_23_259 VDD VSS sg13g2_decap_8
XFILLER_2_119 VDD VSS sg13g2_decap_8
XFILLER_14_259 VDD VSS sg13g2_decap_8
XFILLER_22_270 VDD VSS sg13g2_decap_8
XFILLER_13_84 VDD VSS sg13g2_decap_8
XFILLER_8_0 VDD VSS sg13g2_decap_8
XFILLER_1_196 VDD VSS sg13g2_decap_8
X_40_ _48_/C _66_/A _62_/A _58_/A _55_/A VDD VSS sg13g2_nand4_1
XFILLER_38_70 VDD VSS sg13g2_decap_8
XFILLER_37_329 VDD VSS sg13g2_decap_8
XFILLER_9_252 VDD VSS sg13g2_decap_8
XFILLER_28_329 VDD VSS sg13g2_decap_8
XFILLER_34_28 VDD VSS sg13g2_decap_8
XFILLER_19_329 VDD VSS sg13g2_decap_8
XFILLER_1_7 VDD VSS sg13g2_decap_8
XFILLER_42_343 VDD VSS sg13g2_decap_8
XFILLER_10_273 VDD VSS sg13g2_decap_8
XFILLER_6_266 VDD VSS sg13g2_decap_8
XFILLER_34_7 VDD VSS sg13g2_decap_8
XFILLER_1_21 VDD VSS sg13g2_decap_8
XFILLER_1_98 VDD VSS sg13g2_decap_8
XFILLER_37_126 VDD VSS sg13g2_decap_8
XFILLER_33_343 VDD VSS sg13g2_decap_8
Xhold28 _57_/C _69_/Q VDD VSS sg13g2_dlygate4sd3_1
XFILLER_29_28 VDD VSS sg13g2_decap_8
XFILLER_24_343 VDD VSS sg13g2_decap_4
XFILLER_28_126 VDD VSS sg13g2_decap_8
XFILLER_24_387 VDD VSS sg13g2_decap_4
XFILLER_10_63 VDD VSS sg13g2_decap_8
XFILLER_3_203 VDD VSS sg13g2_decap_8
XFILLER_19_126 VDD VSS sg13g2_decap_8
XFILLER_15_343 VDD VSS sg13g2_decap_8
XFILLER_15_354 VDD VSS sg13g2_fill_1
XFILLER_42_140 VDD VSS sg13g2_decap_8
XFILLER_2_280 VDD VSS sg13g2_decap_8
XFILLER_33_140 VDD VSS sg13g2_decap_8
XFILLER_0_217 VDD VSS sg13g2_decap_8
XFILLER_24_140 VDD VSS sg13g2_decap_8
XFILLER_21_84 VDD VSS sg13g2_decap_8
XFILLER_15_140 VDD VSS sg13g2_decap_8
XFILLER_30_154 VDD VSS sg13g2_decap_8
XFILLER_7_350 VDD VSS sg13g2_decap_8