* NGSPICE file created from counter_top.ext - technology: ihp-sg13g2

* Black-box entry subcircuit for sg13g2_decap_8 abstract view
.subckt sg13g2_decap_8 VDD VSS
.ends

* Black-box entry subcircuit for sg13g2_decap_4 abstract view
.subckt sg13g2_decap_4 VDD VSS
.ends

* Black-box entry subcircuit for sg13g2_fill_1 abstract view
.subckt sg13g2_fill_1 VDD VSS
.ends

* Black-box entry subcircuit for sg13g2_or3_1 abstract view
.subckt sg13g2_or3_1 X A B C VDD VSS
.ends

* Black-box entry subcircuit for sg13g2_mux2_1 abstract view
.subckt sg13g2_mux2_1 X A0 A1 S VDD VSS
.ends

* Black-box entry subcircuit for sg13g2_dlygate4sd3_1 abstract view
.subckt sg13g2_dlygate4sd3_1 X A VDD VSS
.ends

* Black-box entry subcircuit for sg13g2_buf_1 abstract view
.subckt sg13g2_buf_1 X A VDD VSS
.ends

* Black-box entry subcircuit for sg13g2_tiehi abstract view
.subckt sg13g2_tiehi L_HI VDD VSS
.ends

* Black-box entry subcircuit for sg13g2_fill_2 abstract view
.subckt sg13g2_fill_2 VDD VSS
.ends

* Black-box entry subcircuit for sg13g2_o21ai_1 abstract view
.subckt sg13g2_o21ai_1 Y A1 A2 B1 VDD VSS
.ends

* Black-box entry subcircuit for sg13g2_nor3_2 abstract view
.subckt sg13g2_nor3_2 Y A B C VDD VSS
.ends

* Black-box entry subcircuit for sg13g2_nand3_1 abstract view
.subckt sg13g2_nand3_1 Y A B C VDD VSS
.ends

* Black-box entry subcircuit for sg13g2_inv_1 abstract view
.subckt sg13g2_inv_1 Y A VDD VSS
.ends

* Black-box entry subcircuit for sg13g2_a21oi_1 abstract view
.subckt sg13g2_a21oi_1 Y A1 A2 B1 VDD VSS
.ends

* Black-box entry subcircuit for sg13g2_nor2_1 abstract view
.subckt sg13g2_nor2_1 Y A B VDD VSS
.ends

* Black-box entry subcircuit for sg13g2_and2_1 abstract view
.subckt sg13g2_and2_1 X A B VDD VSS
.ends

* Black-box entry subcircuit for sg13g2_nand2_1 abstract view
.subckt sg13g2_nand2_1 Y A B VDD VSS
.ends

* Black-box entry subcircuit for sg13g2_nand4_1 abstract view
.subckt sg13g2_nand4_1 Y A B C D VDD VSS
.ends

* Black-box entry subcircuit for sg13g2_buf_16 abstract view
.subckt sg13g2_buf_16 X A VDD VSS
.ends

* Black-box entry subcircuit for sg13g2_dfrbpq_1 abstract view
.subckt sg13g2_dfrbpq_1 Q CLK D RESET_B VDD VSS
.ends

* Black-box entry subcircuit for sg13g2_xor2_1 abstract view
.subckt sg13g2_xor2_1 X A B VDD VSS
.ends

* Black-box entry subcircuit for sg13g2_buf_4 abstract view
.subckt sg13g2_buf_4 X A VDD VSS
.ends

* Black-box entry subcircuit for sg13g2_xnor2_1 abstract view
.subckt sg13g2_xnor2_1 Y A B VDD VSS
.ends

.subckt counter_top VDD VSS clock_i counter_value_o[0] counter_value_o[1] counter_value_o[2]
+ counter_value_o[3] counter_value_o[4] counter_value_o[5] counter_value_o[6] counter_value_o[7]
+ enable_i reset_n_i
XFILLER_67_553 VDD VSS sg13g2_decap_8
XFILLER_27_406 VDD VSS sg13g2_decap_8
XFILLER_39_266 VDD VSS sg13g2_decap_8
XFILLER_94_350 VDD VSS sg13g2_decap_8
XFILLER_54_203 VDD VSS sg13g2_decap_8
XFILLER_82_567 VDD VSS sg13g2_decap_8
XFILLER_70_707 VDD VSS sg13g2_decap_8
XFILLER_23_623 VDD VSS sg13g2_decap_8
XFILLER_35_483 VDD VSS sg13g2_decap_8
XFILLER_63_770 VDD VSS sg13g2_decap_8
XFILLER_22_133 VDD VSS sg13g2_decap_8
XFILLER_62_280 VDD VSS sg13g2_decap_8
XFILLER_50_420 VDD VSS sg13g2_decap_8
XFILLER_50_497 VDD VSS sg13g2_decap_8
XFILLER_7_7 VDD VSS sg13g2_decap_8
XFILLER_89_133 VDD VSS sg13g2_decap_8
XFILLER_18_406 VDD VSS sg13g2_decap_8
XFILLER_93_14 VDD VSS sg13g2_decap_8
XFILLER_85_350 VDD VSS sg13g2_decap_8
XFILLER_58_553 VDD VSS sg13g2_decap_8
XFILLER_45_203 VDD VSS sg13g2_decap_8
XFILLER_73_567 VDD VSS sg13g2_decap_8
XFILLER_61_707 VDD VSS sg13g2_decap_8
XFILLER_26_483 VDD VSS sg13g2_decap_8
XFILLER_26_63 VDD VSS sg13g2_decap_8
XFILLER_60_217 VDD VSS sg13g2_decap_8
XFILLER_54_770 VDD VSS sg13g2_decap_4
XFILLER_13_133 VDD VSS sg13g2_decap_8
XFILLER_14_634 VDD VSS sg13g2_decap_8
XFILLER_41_420 VDD VSS sg13g2_decap_8
XFILLER_53_280 VDD VSS sg13g2_decap_8
XFILLER_41_497 VDD VSS sg13g2_decap_8
XFILLER_9_126 VDD VSS sg13g2_decap_8
XFILLER_42_84 VDD VSS sg13g2_decap_8
XFILLER_5_343 VDD VSS sg13g2_decap_8
XFILLER_1_560 VDD VSS sg13g2_decap_8
XFILLER_3_56 VDD VSS sg13g2_decap_8
XFILLER_96_637 VDD VSS sg13g2_decap_8
XFILLER_95_147 VDD VSS sg13g2_decap_8
XFILLER_49_564 VDD VSS sg13g2_decap_8
XFILLER_76_350 VDD VSS sg13g2_decap_8
XFILLER_67_70 VDD VSS sg13g2_decap_8
XFILLER_36_203 VDD VSS sg13g2_decap_8
XFILLER_64_567 VDD VSS sg13g2_decap_8
XFILLER_52_707 VDD VSS sg13g2_decap_8
XFILLER_17_483 VDD VSS sg13g2_decap_8
XFILLER_45_770 VDD VSS sg13g2_fill_1
XFILLER_91_364 VDD VSS sg13g2_decap_8
XFILLER_51_217 VDD VSS sg13g2_decap_8
XFILLER_32_420 VDD VSS sg13g2_decap_8
XFILLER_44_280 VDD VSS sg13g2_decap_8
XFILLER_83_91 VDD VSS sg13g2_decap_8
XFILLER_60_784 VDD VSS sg13g2_decap_8
XFILLER_20_637 VDD VSS sg13g2_decap_8
XFILLER_32_497 VDD VSS sg13g2_decap_8
XFILLER_9_693 VDD VSS sg13g2_decap_8
XFILLER_66_0 VDD VSS sg13g2_decap_8
XFILLER_87_637 VDD VSS sg13g2_decap_8
XFILLER_86_147 VDD VSS sg13g2_decap_8
XFILLER_67_350 VDD VSS sg13g2_decap_8
XFILLER_27_203 VDD VSS sg13g2_decap_8
XFILLER_43_707 VDD VSS sg13g2_decap_8
XFILLER_55_567 VDD VSS sg13g2_decap_8
XFILLER_42_217 VDD VSS sg13g2_decap_8
XFILLER_82_364 VDD VSS sg13g2_decap_8
XFILLER_70_504 VDD VSS sg13g2_decap_8
XFILLER_63_28 VDD VSS sg13g2_decap_8
XFILLER_23_420 VDD VSS sg13g2_decap_8
XFILLER_35_280 VDD VSS sg13g2_decap_8
XFILLER_11_637 VDD VSS sg13g2_decap_8
XFILLER_23_497 VDD VSS sg13g2_decap_8
XFILLER_50_294 VDD VSS sg13g2_decap_8
XFILLER_10_147 VDD VSS sg13g2_decap_8
XFILLER_12_21 VDD VSS sg13g2_decap_8
XFILLER_12_98 VDD VSS sg13g2_decap_8
XFILLER_88_14 VDD VSS sg13g2_decap_8
XFILLER_2_357 VDD VSS sg13g2_decap_8
XFILLER_78_637 VDD VSS sg13g2_decap_8
XFILLER_77_147 VDD VSS sg13g2_decap_8
XFILLER_58_350 VDD VSS sg13g2_decap_8
XFILLER_18_203 VDD VSS sg13g2_decap_8
XFILLER_34_707 VDD VSS sg13g2_decap_8
XFILLER_37_84 VDD VSS sg13g2_decap_8
XFILLER_46_567 VDD VSS sg13g2_decap_8
XFILLER_27_770 VDD VSS sg13g2_decap_8
XFILLER_33_217 VDD VSS sg13g2_decap_8
XFILLER_73_364 VDD VSS sg13g2_decap_8
XFILLER_61_504 VDD VSS sg13g2_decap_8
XFILLER_14_431 VDD VSS sg13g2_decap_8
XFILLER_26_280 VDD VSS sg13g2_decap_8
XFILLER_41_294 VDD VSS sg13g2_decap_8
XFILLER_6_630 VDD VSS sg13g2_decap_8
XFILLER_5_140 VDD VSS sg13g2_decap_8
XFILLER_96_434 VDD VSS sg13g2_decap_8
XFILLER_78_91 VDD VSS sg13g2_decap_8
XFILLER_69_637 VDD VSS sg13g2_decap_8
XFILLER_68_147 VDD VSS sg13g2_decap_8
XFILLER_49_361 VDD VSS sg13g2_decap_8
XFILLER_25_707 VDD VSS sg13g2_decap_8
XFILLER_37_567 VDD VSS sg13g2_decap_8
XFILLER_92_651 VDD VSS sg13g2_decap_8
X_66_ _66_/X _66_/A _66_/B _66_/C VDD VSS sg13g2_or3_1
XFILLER_18_770 VDD VSS sg13g2_decap_8
XFILLER_24_217 VDD VSS sg13g2_decap_8
XFILLER_91_161 VDD VSS sg13g2_decap_8
XFILLER_64_364 VDD VSS sg13g2_decap_8
XFILLER_52_504 VDD VSS sg13g2_decap_8
XFILLER_17_280 VDD VSS sg13g2_decap_8
XFILLER_60_581 VDD VSS sg13g2_decap_8
XFILLER_20_434 VDD VSS sg13g2_decap_8
XFILLER_32_294 VDD VSS sg13g2_decap_8
XFILLER_9_490 VDD VSS sg13g2_decap_8
XFILLER_58_28 VDD VSS sg13g2_decap_8
XFILLER_87_434 VDD VSS sg13g2_decap_8
XFILLER_59_147 VDD VSS sg13g2_decap_8
XFILLER_16_707 VDD VSS sg13g2_decap_8
XFILLER_28_567 VDD VSS sg13g2_decap_8
XFILLER_83_651 VDD VSS sg13g2_decap_8
XFILLER_74_49 VDD VSS sg13g2_decap_8
XFILLER_15_217 VDD VSS sg13g2_decap_8
XFILLER_43_504 VDD VSS sg13g2_decap_8
XFILLER_82_161 VDD VSS sg13g2_decap_8
XFILLER_70_301 VDD VSS sg13g2_decap_8
XFILLER_55_364 VDD VSS sg13g2_decap_8
XFILLER_70_378 VDD VSS sg13g2_decap_8
XFILLER_24_784 VDD VSS sg13g2_decap_8
XFILLER_51_581 VDD VSS sg13g2_decap_8
XFILLER_11_434 VDD VSS sg13g2_decap_8
XFILLER_23_294 VDD VSS sg13g2_decap_8
XFILLER_23_42 VDD VSS sg13g2_decap_8
XFILLER_7_427 VDD VSS sg13g2_decap_8
XFILLER_3_644 VDD VSS sg13g2_decap_8
XFILLER_2_154 VDD VSS sg13g2_decap_8
XFILLER_78_434 VDD VSS sg13g2_decap_8
XFILLER_0_35 VDD VSS sg13g2_decap_8
XFILLER_93_448 VDD VSS sg13g2_decap_8
XFILLER_74_651 VDD VSS sg13g2_decap_8
XFILLER_19_567 VDD VSS sg13g2_decap_8
XFILLER_34_504 VDD VSS sg13g2_decap_8
XFILLER_46_364 VDD VSS sg13g2_decap_8
XFILLER_73_161 VDD VSS sg13g2_decap_8
XFILLER_61_301 VDD VSS sg13g2_decap_8
XFILLER_61_378 VDD VSS sg13g2_decap_8
XFILLER_15_784 VDD VSS sg13g2_decap_8
XFILLER_30_721 VDD VSS sg13g2_decap_8
XFILLER_42_581 VDD VSS sg13g2_decap_8
XFILLER_9_77 VDD VSS sg13g2_decap_8
XFILLER_30_798 VDD VSS sg13g2_decap_8
XFILLER_80_70 VDD VSS sg13g2_decap_8
XFILLER_69_434 VDD VSS sg13g2_decap_8
XFILLER_29_0 VDD VSS sg13g2_decap_8
XFILLER_96_231 VDD VSS sg13g2_decap_8
XFILLER_84_448 VDD VSS sg13g2_decap_8
XFILLER_65_651 VDD VSS sg13g2_decap_8
XFILLER_25_504 VDD VSS sg13g2_decap_8
XFILLER_37_364 VDD VSS sg13g2_decap_8
X_49_ _75_/D _45_/X _46_/Y _49_/S VDD VSS sg13g2_mux2_1
XFILLER_64_161 VDD VSS sg13g2_decap_8
XFILLER_52_301 VDD VSS sg13g2_decap_8
XFILLER_40_518 VDD VSS sg13g2_decap_8
XFILLER_80_665 VDD VSS sg13g2_decap_8
XFILLER_52_378 VDD VSS sg13g2_decap_8
XFILLER_21_721 VDD VSS sg13g2_decap_8
XFILLER_33_581 VDD VSS sg13g2_decap_8
XFILLER_20_231 VDD VSS sg13g2_decap_8
XFILLER_21_798 VDD VSS sg13g2_decap_8
XFILLER_69_49 VDD VSS sg13g2_decap_8
XFILLER_88_721 VDD VSS sg13g2_decap_8
XFILLER_0_658 VDD VSS sg13g2_decap_8
XFILLER_87_231 VDD VSS sg13g2_decap_8
XFILLER_88_798 VDD VSS sg13g2_decap_8
XFILLER_18_42 VDD VSS sg13g2_decap_8
XFILLER_75_448 VDD VSS sg13g2_decap_8
XFILLER_56_651 VDD VSS sg13g2_decap_8
XFILLER_16_504 VDD VSS sg13g2_decap_8
XFILLER_28_364 VDD VSS sg13g2_decap_8
XFILLER_43_301 VDD VSS sg13g2_decap_8
XFILLER_55_161 VDD VSS sg13g2_decap_8
XFILLER_31_518 VDD VSS sg13g2_decap_8
XFILLER_71_665 VDD VSS sg13g2_decap_8
XFILLER_12_721 VDD VSS sg13g2_decap_8
XFILLER_24_581 VDD VSS sg13g2_decap_8
XFILLER_34_63 VDD VSS sg13g2_decap_8
XFILLER_43_378 VDD VSS sg13g2_decap_8
XFILLER_70_175 VDD VSS sg13g2_decap_8
XFILLER_11_231 VDD VSS sg13g2_decap_8
XFILLER_12_798 VDD VSS sg13g2_decap_8
XFILLER_8_714 VDD VSS sg13g2_decap_8
XFILLER_7_224 VDD VSS sg13g2_decap_8
XFILLER_50_84 VDD VSS sg13g2_decap_8
XFILLER_3_441 VDD VSS sg13g2_decap_8
XFILLER_79_721 VDD VSS sg13g2_decap_8
XFILLER_22_7 VDD VSS sg13g2_decap_8
XFILLER_78_231 VDD VSS sg13g2_decap_8
XFILLER_94_735 VDD VSS sg13g2_decap_8
XFILLER_79_798 VDD VSS sg13g2_decap_8
XFILLER_93_245 VDD VSS sg13g2_decap_8
XFILLER_66_448 VDD VSS sg13g2_decap_8
XFILLER_19_364 VDD VSS sg13g2_decap_8
XFILLER_47_651 VDD VSS sg13g2_decap_8
XFILLER_75_70 VDD VSS sg13g2_decap_8
XFILLER_34_301 VDD VSS sg13g2_decap_8
XFILLER_46_161 VDD VSS sg13g2_decap_8
XFILLER_62_665 VDD VSS sg13g2_decap_8
XFILLER_15_581 VDD VSS sg13g2_decap_8
XFILLER_22_518 VDD VSS sg13g2_decap_8
XFILLER_34_378 VDD VSS sg13g2_decap_8
XFILLER_61_175 VDD VSS sg13g2_decap_8
XFILLER_91_91 VDD VSS sg13g2_decap_8
XFILLER_30_595 VDD VSS sg13g2_decap_8
XFILLER_7_791 VDD VSS sg13g2_decap_8
XFILLER_89_518 VDD VSS sg13g2_decap_8
XFILLER_69_231 VDD VSS sg13g2_decap_8
XFILLER_85_735 VDD VSS sg13g2_decap_8
XFILLER_84_245 VDD VSS sg13g2_decap_8
XFILLER_57_448 VDD VSS sg13g2_decap_8
XFILLER_38_651 VDD VSS sg13g2_decap_8
XFILLER_25_301 VDD VSS sg13g2_decap_8
XFILLER_37_161 VDD VSS sg13g2_decap_8
XFILLER_41_805 VDD VSS sg13g2_decap_4
XFILLER_80_462 VDD VSS sg13g2_decap_8
XFILLER_53_665 VDD VSS sg13g2_decap_8
XFILLER_13_518 VDD VSS sg13g2_decap_8
XFILLER_25_378 VDD VSS sg13g2_decap_8
XFILLER_40_315 VDD VSS sg13g2_decap_8
XFILLER_71_28 VDD VSS sg13g2_decap_8
XFILLER_52_175 VDD VSS sg13g2_decap_8
XFILLER_21_595 VDD VSS sg13g2_decap_8
XFILLER_5_728 VDD VSS sg13g2_decap_8
XFILLER_20_21 VDD VSS sg13g2_decap_8
XFILLER_4_238 VDD VSS sg13g2_decap_8
XFILLER_20_98 VDD VSS sg13g2_decap_8
XFILLER_96_14 VDD VSS sg13g2_decap_8
XFILLER_0_455 VDD VSS sg13g2_decap_8
XFILLER_88_595 VDD VSS sg13g2_decap_8
Xhold30 _53_/A _69_/Q VDD VSS sg13g2_dlygate4sd3_1
XFILLER_76_735 VDD VSS sg13g2_decap_8
XFILLER_29_63 VDD VSS sg13g2_decap_8
XFILLER_48_448 VDD VSS sg13g2_decap_8
XFILLER_75_245 VDD VSS sg13g2_decap_8
XFILLER_29_651 VDD VSS sg13g2_decap_8
XFILLER_16_301 VDD VSS sg13g2_decap_8
XFILLER_28_161 VDD VSS sg13g2_decap_8
XFILLER_91_749 VDD VSS sg13g2_decap_8
XFILLER_32_805 VDD VSS sg13g2_decap_4
XFILLER_44_665 VDD VSS sg13g2_decap_8
XFILLER_90_259 VDD VSS sg13g2_decap_8
XFILLER_16_378 VDD VSS sg13g2_decap_8
XFILLER_31_315 VDD VSS sg13g2_decap_8
XFILLER_43_175 VDD VSS sg13g2_decap_8
XFILLER_45_84 VDD VSS sg13g2_decap_8
XFILLER_71_462 VDD VSS sg13g2_decap_8
XFILLER_8_511 VDD VSS sg13g2_decap_8
XFILLER_12_595 VDD VSS sg13g2_decap_8
XFILLER_8_588 VDD VSS sg13g2_decap_8
XFILLER_6_56 VDD VSS sg13g2_decap_8
XFILLER_79_595 VDD VSS sg13g2_decap_8
XFILLER_67_735 VDD VSS sg13g2_decap_8
XFILLER_39_448 VDD VSS sg13g2_decap_8
XFILLER_86_91 VDD VSS sg13g2_decap_8
XFILLER_94_532 VDD VSS sg13g2_decap_8
XFILLER_66_245 VDD VSS sg13g2_decap_8
XFILLER_19_161 VDD VSS sg13g2_decap_8
XFILLER_82_749 VDD VSS sg13g2_decap_8
XFILLER_23_805 VDD VSS sg13g2_decap_4
XFILLER_35_665 VDD VSS sg13g2_decap_8
XFILLER_81_259 VDD VSS sg13g2_decap_8
XFILLER_22_315 VDD VSS sg13g2_decap_8
XFILLER_34_175 VDD VSS sg13g2_decap_8
XFILLER_62_462 VDD VSS sg13g2_decap_8
XFILLER_50_602 VDD VSS sg13g2_decap_8
XFILLER_96_0 VDD VSS sg13g2_decap_8
XFILLER_50_679 VDD VSS sg13g2_decap_8
XFILLER_30_392 VDD VSS sg13g2_decap_8
XFILLER_89_315 VDD VSS sg13g2_decap_8
XFILLER_58_735 VDD VSS sg13g2_decap_8
XFILLER_85_532 VDD VSS sg13g2_decap_8
XFILLER_66_28 VDD VSS sg13g2_decap_8
XFILLER_57_245 VDD VSS sg13g2_decap_8
XFILLER_73_749 VDD VSS sg13g2_decap_8
XFILLER_26_665 VDD VSS sg13g2_decap_8
XFILLER_72_259 VDD VSS sg13g2_decap_8
XFILLER_13_315 VDD VSS sg13g2_decap_8
XFILLER_15_21 VDD VSS sg13g2_decap_8
XFILLER_25_175 VDD VSS sg13g2_decap_8
XFILLER_41_602 VDD VSS sg13g2_decap_8
XFILLER_82_49 VDD VSS sg13g2_decap_8
XFILLER_53_462 VDD VSS sg13g2_decap_8
XFILLER_40_112 VDD VSS sg13g2_decap_8
XFILLER_15_98 VDD VSS sg13g2_decap_8
XFILLER_41_679 VDD VSS sg13g2_decap_8
XFILLER_9_308 VDD VSS sg13g2_decap_8
XFILLER_40_189 VDD VSS sg13g2_decap_8
XFILLER_21_392 VDD VSS sg13g2_decap_8
XFILLER_31_42 VDD VSS sg13g2_decap_8
XFILLER_5_525 VDD VSS sg13g2_decap_8
Xoutput7 counter_value_o[4] _72_/Q VDD VSS sg13g2_buf_1
XFILLER_1_742 VDD VSS sg13g2_decap_8
XFILLER_0_252 VDD VSS sg13g2_decap_8
XFILLER_95_329 VDD VSS sg13g2_decap_8
XFILLER_49_746 VDD VSS sg13g2_decap_8
XFILLER_88_392 VDD VSS sg13g2_decap_8
XFILLER_76_532 VDD VSS sg13g2_decap_8
XFILLER_48_245 VDD VSS sg13g2_decap_8
XFILLER_91_546 VDD VSS sg13g2_decap_8
XFILLER_64_749 VDD VSS sg13g2_decap_8
XFILLER_17_665 VDD VSS sg13g2_decap_8
XFILLER_63_259 VDD VSS sg13g2_decap_8
XFILLER_16_175 VDD VSS sg13g2_decap_8
XFILLER_32_602 VDD VSS sg13g2_decap_8
XFILLER_44_462 VDD VSS sg13g2_decap_8
XFILLER_31_112 VDD VSS sg13g2_decap_8
XFILLER_32_679 VDD VSS sg13g2_decap_8
XFILLER_31_189 VDD VSS sg13g2_decap_8
XFILLER_12_392 VDD VSS sg13g2_decap_8
XFILLER_8_385 VDD VSS sg13g2_decap_8
XFILLER_86_329 VDD VSS sg13g2_decap_8
XFILLER_79_392 VDD VSS sg13g2_decap_8
XFILLER_67_532 VDD VSS sg13g2_decap_8
XFILLER_11_0 VDD VSS sg13g2_decap_8
XFILLER_39_245 VDD VSS sg13g2_decap_8
XFILLER_55_749 VDD VSS sg13g2_decap_8
XFILLER_82_546 VDD VSS sg13g2_decap_8
XFILLER_54_259 VDD VSS sg13g2_decap_8
XFILLER_23_602 VDD VSS sg13g2_decap_8
XFILLER_35_462 VDD VSS sg13g2_decap_8
XFILLER_22_112 VDD VSS sg13g2_decap_8
XFILLER_23_679 VDD VSS sg13g2_decap_8
XFILLER_50_476 VDD VSS sg13g2_decap_8
XFILLER_10_329 VDD VSS sg13g2_decap_8
XFILLER_22_189 VDD VSS sg13g2_decap_8
X_75__14 _75__14/L_HI VDD VSS sg13g2_tiehi
XFILLER_2_539 VDD VSS sg13g2_decap_8
XFILLER_89_112 VDD VSS sg13g2_decap_8
XFILLER_89_189 VDD VSS sg13g2_decap_8
XFILLER_77_49 VDD VSS sg13g2_decap_8
XFILLER_77_329 VDD VSS sg13g2_decap_8
XFILLER_58_532 VDD VSS sg13g2_decap_8
XFILLER_46_749 VDD VSS sg13g2_decap_8
XFILLER_26_42 VDD VSS sg13g2_decap_8
XFILLER_45_259 VDD VSS sg13g2_decap_8
XFILLER_73_546 VDD VSS sg13g2_decap_8
XFILLER_14_613 VDD VSS sg13g2_decap_8
XFILLER_26_462 VDD VSS sg13g2_decap_8
XFILLER_13_112 VDD VSS sg13g2_decap_8
XFILLER_41_476 VDD VSS sg13g2_decap_8
XFILLER_9_105 VDD VSS sg13g2_decap_8
XFILLER_13_189 VDD VSS sg13g2_decap_8
XFILLER_42_63 VDD VSS sg13g2_decap_8
XFILLER_5_322 VDD VSS sg13g2_decap_8
XFILLER_5_399 VDD VSS sg13g2_decap_8
XFILLER_3_35 VDD VSS sg13g2_decap_8
XFILLER_96_616 VDD VSS sg13g2_decap_8
XFILLER_68_329 VDD VSS sg13g2_decap_8
XFILLER_95_126 VDD VSS sg13g2_decap_8
XFILLER_49_543 VDD VSS sg13g2_decap_8
XFILLER_37_749 VDD VSS sg13g2_decap_8
XFILLER_36_259 VDD VSS sg13g2_decap_8
XFILLER_91_343 VDD VSS sg13g2_decap_8
XFILLER_64_546 VDD VSS sg13g2_decap_8
XFILLER_17_462 VDD VSS sg13g2_decap_8
XFILLER_83_70 VDD VSS sg13g2_decap_8
XFILLER_20_616 VDD VSS sg13g2_decap_8
XFILLER_60_763 VDD VSS sg13g2_decap_8
XFILLER_32_476 VDD VSS sg13g2_decap_8
XFILLER_9_672 VDD VSS sg13g2_decap_8
XFILLER_8_182 VDD VSS sg13g2_decap_8
X_72__17 _72__17/L_HI VDD VSS sg13g2_tiehi
XFILLER_59_0 VDD VSS sg13g2_decap_8
XFILLER_87_616 VDD VSS sg13g2_decap_8
XFILLER_86_126 VDD VSS sg13g2_decap_8
XFILLER_59_329 VDD VSS sg13g2_decap_8
XFILLER_28_749 VDD VSS sg13g2_decap_8
XFILLER_95_693 VDD VSS sg13g2_decap_8
XFILLER_27_259 VDD VSS sg13g2_decap_8
XFILLER_82_343 VDD VSS sg13g2_decap_8
XFILLER_55_546 VDD VSS sg13g2_decap_8
XFILLER_51_763 VDD VSS sg13g2_decap_4
XFILLER_11_616 VDD VSS sg13g2_decap_8
XFILLER_23_476 VDD VSS sg13g2_decap_8
XFILLER_50_273 VDD VSS sg13g2_decap_8
XFILLER_10_126 VDD VSS sg13g2_decap_8
XFILLER_7_609 VDD VSS sg13g2_decap_8
XFILLER_6_119 VDD VSS sg13g2_decap_8
XFILLER_12_77 VDD VSS sg13g2_decap_8
XFILLER_2_336 VDD VSS sg13g2_decap_8
XFILLER_78_616 VDD VSS sg13g2_decap_8
XFILLER_77_126 VDD VSS sg13g2_decap_8
XFILLER_19_749 VDD VSS sg13g2_decap_8
XFILLER_86_693 VDD VSS sg13g2_decap_8
XFILLER_18_259 VDD VSS sg13g2_decap_8
XFILLER_37_63 VDD VSS sg13g2_decap_8
XFILLER_46_546 VDD VSS sg13g2_decap_8
XFILLER_73_343 VDD VSS sg13g2_decap_8
XFILLER_14_410 VDD VSS sg13g2_decap_8
XFILLER_42_763 VDD VSS sg13g2_decap_8
XFILLER_42_774 VDD VSS sg13g2_fill_2
XFILLER_14_487 VDD VSS sg13g2_decap_8
XFILLER_41_273 VDD VSS sg13g2_decap_8
XFILLER_53_84 VDD VSS sg13g2_decap_8
XFILLER_10_693 VDD VSS sg13g2_decap_8
XFILLER_6_686 VDD VSS sg13g2_decap_8
XFILLER_52_7 VDD VSS sg13g2_decap_8
XFILLER_5_196 VDD VSS sg13g2_decap_8
XFILLER_96_413 VDD VSS sg13g2_decap_8
XFILLER_69_616 VDD VSS sg13g2_decap_8
XFILLER_78_70 VDD VSS sg13g2_decap_8
XFILLER_68_126 VDD VSS sg13g2_decap_8
XFILLER_49_340 VDD VSS sg13g2_decap_8
XFILLER_77_693 VDD VSS sg13g2_decap_8
XFILLER_37_546 VDD VSS sg13g2_decap_8
XFILLER_92_630 VDD VSS sg13g2_decap_8
X_65_ _65_/Y _66_/B _66_/C _66_/A VDD VSS sg13g2_o21ai_1
XFILLER_64_343 VDD VSS sg13g2_decap_8
XFILLER_91_140 VDD VSS sg13g2_decap_8
XFILLER_94_91 VDD VSS sg13g2_decap_8
XFILLER_33_763 VDD VSS sg13g2_decap_8
XFILLER_20_413 VDD VSS sg13g2_decap_8
XFILLER_32_273 VDD VSS sg13g2_decap_8
XFILLER_60_560 VDD VSS sg13g2_decap_8
XFILLER_87_413 VDD VSS sg13g2_decap_8
XFILLER_59_126 VDD VSS sg13g2_decap_8
XFILLER_68_693 VDD VSS sg13g2_decap_8
XFILLER_28_546 VDD VSS sg13g2_decap_8
XFILLER_95_490 VDD VSS sg13g2_decap_8
XFILLER_83_630 VDD VSS sg13g2_decap_8
XFILLER_74_28 VDD VSS sg13g2_decap_8
XFILLER_55_343 VDD VSS sg13g2_decap_8
XFILLER_82_140 VDD VSS sg13g2_decap_8
XFILLER_24_763 VDD VSS sg13g2_decap_8
XFILLER_70_357 VDD VSS sg13g2_decap_8
XFILLER_11_413 VDD VSS sg13g2_decap_8
XFILLER_23_21 VDD VSS sg13g2_decap_8
XFILLER_23_273 VDD VSS sg13g2_decap_8
XFILLER_90_49 VDD VSS sg13g2_decap_8
XFILLER_51_560 VDD VSS sg13g2_decap_8
XFILLER_7_406 VDD VSS sg13g2_decap_8
XFILLER_23_98 VDD VSS sg13g2_decap_8
XFILLER_3_623 VDD VSS sg13g2_decap_8
XFILLER_2_133 VDD VSS sg13g2_decap_8
XFILLER_78_413 VDD VSS sg13g2_decap_8
XFILLER_48_84 VDD VSS sg13g2_decap_8
XFILLER_93_427 VDD VSS sg13g2_decap_8
XFILLER_0_14 VDD VSS sg13g2_decap_8
XFILLER_19_546 VDD VSS sg13g2_decap_8
XFILLER_46_343 VDD VSS sg13g2_decap_8
XFILLER_86_490 VDD VSS sg13g2_decap_8
XFILLER_74_630 VDD VSS sg13g2_decap_8
XFILLER_59_693 VDD VSS sg13g2_decap_8
XFILLER_73_140 VDD VSS sg13g2_decap_8
XFILLER_15_763 VDD VSS sg13g2_decap_8
XFILLER_61_357 VDD VSS sg13g2_decap_8
XFILLER_30_700 VDD VSS sg13g2_decap_8
XFILLER_42_560 VDD VSS sg13g2_decap_8
XFILLER_14_284 VDD VSS sg13g2_decap_8
XFILLER_9_56 VDD VSS sg13g2_decap_8
XFILLER_30_777 VDD VSS sg13g2_decap_8
XFILLER_10_490 VDD VSS sg13g2_decap_8
XFILLER_6_483 VDD VSS sg13g2_decap_8
XFILLER_89_91 VDD VSS sg13g2_decap_8
XFILLER_96_210 VDD VSS sg13g2_decap_8
XFILLER_69_413 VDD VSS sg13g2_decap_8
XFILLER_96_287 VDD VSS sg13g2_decap_8
XFILLER_84_427 VDD VSS sg13g2_decap_8
XFILLER_77_490 VDD VSS sg13g2_decap_8
XFILLER_65_630 VDD VSS sg13g2_decap_8
XFILLER_37_343 VDD VSS sg13g2_decap_8
X_48_ _49_/S _48_/A _66_/B _48_/C VDD VSS sg13g2_nor3_2
XFILLER_64_140 VDD VSS sg13g2_decap_8
XFILLER_80_644 VDD VSS sg13g2_decap_8
XFILLER_52_357 VDD VSS sg13g2_decap_8
XFILLER_21_700 VDD VSS sg13g2_decap_8
XFILLER_33_560 VDD VSS sg13g2_decap_8
XFILLER_20_210 VDD VSS sg13g2_decap_8
XFILLER_21_777 VDD VSS sg13g2_decap_8
XFILLER_20_287 VDD VSS sg13g2_decap_8
XFILLER_69_28 VDD VSS sg13g2_decap_8
XFILLER_88_700 VDD VSS sg13g2_decap_8
XFILLER_0_637 VDD VSS sg13g2_decap_8
XFILLER_87_210 VDD VSS sg13g2_decap_8
XFILLER_88_777 VDD VSS sg13g2_decap_8
XFILLER_87_287 VDD VSS sg13g2_decap_8
XFILLER_85_49 VDD VSS sg13g2_decap_8
XFILLER_75_427 VDD VSS sg13g2_decap_8
XFILLER_18_21 VDD VSS sg13g2_decap_8
XFILLER_68_490 VDD VSS sg13g2_decap_8
XFILLER_56_630 VDD VSS sg13g2_decap_8
XFILLER_28_343 VDD VSS sg13g2_decap_8
XFILLER_55_140 VDD VSS sg13g2_decap_8
XFILLER_18_98 VDD VSS sg13g2_decap_8
XFILLER_71_644 VDD VSS sg13g2_decap_8
XFILLER_43_357 VDD VSS sg13g2_decap_8
XFILLER_70_154 VDD VSS sg13g2_decap_8
XFILLER_12_700 VDD VSS sg13g2_decap_8
XFILLER_24_560 VDD VSS sg13g2_decap_8
XFILLER_34_42 VDD VSS sg13g2_decap_8
XFILLER_11_210 VDD VSS sg13g2_decap_8
XFILLER_12_777 VDD VSS sg13g2_decap_8
XFILLER_7_203 VDD VSS sg13g2_decap_8
XFILLER_11_287 VDD VSS sg13g2_decap_8
XFILLER_50_63 VDD VSS sg13g2_decap_8
XFILLER_3_420 VDD VSS sg13g2_decap_8
XFILLER_79_700 VDD VSS sg13g2_decap_8
XFILLER_3_497 VDD VSS sg13g2_decap_8
XFILLER_78_210 VDD VSS sg13g2_decap_8
XFILLER_79_777 VDD VSS sg13g2_decap_8
XFILLER_94_714 VDD VSS sg13g2_decap_8
XFILLER_78_287 VDD VSS sg13g2_decap_8
XFILLER_66_427 VDD VSS sg13g2_decap_8
XFILLER_15_7 VDD VSS sg13g2_decap_8
XFILLER_47_630 VDD VSS sg13g2_decap_8
XFILLER_93_224 VDD VSS sg13g2_decap_8
XFILLER_59_490 VDD VSS sg13g2_decap_8
XFILLER_19_343 VDD VSS sg13g2_decap_8
XFILLER_35_803 VDD VSS sg13g2_decap_4
XFILLER_46_140 VDD VSS sg13g2_decap_8
XFILLER_34_357 VDD VSS sg13g2_decap_8
XFILLER_62_644 VDD VSS sg13g2_decap_8
XFILLER_15_560 VDD VSS sg13g2_decap_8
XFILLER_61_154 VDD VSS sg13g2_decap_8
XFILLER_91_70 VDD VSS sg13g2_decap_8
XFILLER_30_574 VDD VSS sg13g2_decap_8
XFILLER_7_770 VDD VSS sg13g2_decap_8
XFILLER_6_280 VDD VSS sg13g2_decap_8
XFILLER_41_0 VDD VSS sg13g2_decap_8
XFILLER_69_210 VDD VSS sg13g2_decap_8
XFILLER_85_714 VDD VSS sg13g2_decap_8
XFILLER_69_287 VDD VSS sg13g2_decap_8
XFILLER_57_427 VDD VSS sg13g2_decap_8
XFILLER_38_630 VDD VSS sg13g2_decap_8
XFILLER_84_224 VDD VSS sg13g2_decap_8
XFILLER_37_140 VDD VSS sg13g2_decap_8
XFILLER_93_791 VDD VSS sg13g2_decap_8
XFILLER_25_357 VDD VSS sg13g2_decap_8
XFILLER_80_441 VDD VSS sg13g2_decap_8
XFILLER_53_644 VDD VSS sg13g2_decap_8
XFILLER_52_154 VDD VSS sg13g2_decap_8
XFILLER_21_574 VDD VSS sg13g2_decap_8
XFILLER_5_707 VDD VSS sg13g2_decap_8
XFILLER_4_217 VDD VSS sg13g2_decap_8
XFILLER_20_77 VDD VSS sg13g2_decap_8
XFILLER_0_434 VDD VSS sg13g2_decap_8
XFILLER_29_42 VDD VSS sg13g2_decap_8
XFILLER_48_427 VDD VSS sg13g2_decap_8
XFILLER_88_574 VDD VSS sg13g2_decap_8
Xhold20 _63_/A1 _61_/Y VDD VSS sg13g2_dlygate4sd3_1
Xhold31 _54_/B _53_/X VDD VSS sg13g2_dlygate4sd3_1
XFILLER_76_714 VDD VSS sg13g2_decap_8
XFILLER_29_630 VDD VSS sg13g2_decap_8
XFILLER_75_224 VDD VSS sg13g2_decap_8
XFILLER_28_140 VDD VSS sg13g2_decap_8
XFILLER_91_728 VDD VSS sg13g2_decap_8
XFILLER_90_238 VDD VSS sg13g2_decap_8
XFILLER_84_791 VDD VSS sg13g2_decap_8
XFILLER_16_357 VDD VSS sg13g2_decap_8
XFILLER_44_644 VDD VSS sg13g2_decap_8
XFILLER_45_63 VDD VSS sg13g2_decap_8
XFILLER_71_441 VDD VSS sg13g2_decap_8
XFILLER_43_154 VDD VSS sg13g2_decap_8
XFILLER_12_574 VDD VSS sg13g2_decap_8
XFILLER_61_84 VDD VSS sg13g2_decap_8
XFILLER_8_567 VDD VSS sg13g2_decap_8
XFILLER_6_35 VDD VSS sg13g2_decap_8
XFILLER_4_784 VDD VSS sg13g2_decap_8
XFILLER_3_294 VDD VSS sg13g2_decap_8
XFILLER_94_511 VDD VSS sg13g2_decap_8
XFILLER_79_574 VDD VSS sg13g2_decap_8
XFILLER_67_714 VDD VSS sg13g2_decap_8
XFILLER_39_427 VDD VSS sg13g2_decap_8
XFILLER_86_70 VDD VSS sg13g2_decap_8
XFILLER_66_224 VDD VSS sg13g2_decap_8
XFILLER_19_140 VDD VSS sg13g2_decap_8
XFILLER_94_588 VDD VSS sg13g2_decap_8
XFILLER_82_728 VDD VSS sg13g2_decap_8
XFILLER_81_238 VDD VSS sg13g2_decap_8
XFILLER_75_791 VDD VSS sg13g2_decap_8
XFILLER_35_644 VDD VSS sg13g2_decap_8
XFILLER_62_441 VDD VSS sg13g2_decap_8
XFILLER_34_154 VDD VSS sg13g2_decap_8
XFILLER_50_658 VDD VSS sg13g2_decap_8
XFILLER_89_0 VDD VSS sg13g2_decap_8
XFILLER_30_371 VDD VSS sg13g2_decap_8
XFILLER_85_511 VDD VSS sg13g2_decap_8
XFILLER_58_714 VDD VSS sg13g2_decap_8
XFILLER_57_224 VDD VSS sg13g2_decap_8
XFILLER_85_588 VDD VSS sg13g2_decap_8
XFILLER_73_728 VDD VSS sg13g2_decap_8
XFILLER_66_791 VDD VSS sg13g2_decap_8
XFILLER_26_644 VDD VSS sg13g2_decap_8
XFILLER_82_28 VDD VSS sg13g2_decap_8
XFILLER_72_238 VDD VSS sg13g2_decap_8
XFILLER_53_441 VDD VSS sg13g2_decap_8
XFILLER_25_154 VDD VSS sg13g2_decap_8
XFILLER_41_658 VDD VSS sg13g2_decap_8
XFILLER_15_77 VDD VSS sg13g2_decap_8
XFILLER_40_168 VDD VSS sg13g2_decap_8
XFILLER_21_371 VDD VSS sg13g2_decap_8
XFILLER_31_21 VDD VSS sg13g2_decap_8
XFILLER_5_504 VDD VSS sg13g2_decap_8
XFILLER_31_98 VDD VSS sg13g2_decap_8
Xoutput10 counter_value_o[7] _75_/Q VDD VSS sg13g2_buf_1
Xoutput8 counter_value_o[5] _73_/Q VDD VSS sg13g2_buf_1
XFILLER_1_721 VDD VSS sg13g2_decap_8
XFILLER_0_231 VDD VSS sg13g2_decap_8
XFILLER_49_725 VDD VSS sg13g2_decap_8
XFILLER_95_308 VDD VSS sg13g2_decap_8
XFILLER_1_798 VDD VSS sg13g2_decap_8
XFILLER_48_224 VDD VSS sg13g2_decap_8
XFILLER_88_371 VDD VSS sg13g2_decap_8
XFILLER_76_511 VDD VSS sg13g2_decap_8
XFILLER_91_525 VDD VSS sg13g2_decap_8
XFILLER_76_588 VDD VSS sg13g2_decap_8
XFILLER_64_728 VDD VSS sg13g2_decap_8
XFILLER_57_791 VDD VSS sg13g2_decap_8
XFILLER_56_84 VDD VSS sg13g2_decap_8
XFILLER_17_644 VDD VSS sg13g2_decap_8
XFILLER_44_441 VDD VSS sg13g2_decap_8
XFILLER_63_238 VDD VSS sg13g2_decap_8
XFILLER_16_154 VDD VSS sg13g2_decap_8
XFILLER_32_658 VDD VSS sg13g2_decap_8
XFILLER_31_168 VDD VSS sg13g2_decap_8
XFILLER_12_371 VDD VSS sg13g2_decap_8
XFILLER_82_7 VDD VSS sg13g2_decap_8
XFILLER_8_364 VDD VSS sg13g2_decap_8
XFILLER_4_581 VDD VSS sg13g2_decap_8
XFILLER_86_308 VDD VSS sg13g2_decap_8
XFILLER_39_224 VDD VSS sg13g2_decap_8
XFILLER_79_371 VDD VSS sg13g2_decap_8
XFILLER_67_511 VDD VSS sg13g2_decap_8
XFILLER_94_385 VDD VSS sg13g2_decap_8
XFILLER_82_525 VDD VSS sg13g2_decap_8
XFILLER_67_588 VDD VSS sg13g2_decap_8
XFILLER_55_728 VDD VSS sg13g2_decap_8
XFILLER_35_441 VDD VSS sg13g2_decap_8
XFILLER_54_238 VDD VSS sg13g2_decap_8
XFILLER_10_308 VDD VSS sg13g2_decap_8
XFILLER_23_658 VDD VSS sg13g2_decap_8
XFILLER_50_455 VDD VSS sg13g2_decap_8
XFILLER_22_168 VDD VSS sg13g2_decap_8
XFILLER_2_518 VDD VSS sg13g2_decap_8
XFILLER_77_28 VDD VSS sg13g2_decap_8
XFILLER_89_168 VDD VSS sg13g2_decap_8
XFILLER_77_308 VDD VSS sg13g2_decap_8
XFILLER_58_511 VDD VSS sg13g2_decap_8
XFILLER_46_728 VDD VSS sg13g2_decap_8
XFILLER_85_385 VDD VSS sg13g2_decap_8
XFILLER_73_525 VDD VSS sg13g2_decap_8
XFILLER_58_588 VDD VSS sg13g2_decap_8
XFILLER_26_21 VDD VSS sg13g2_decap_8
XFILLER_45_238 VDD VSS sg13g2_decap_8
XFILLER_93_49 VDD VSS sg13g2_decap_8
XFILLER_26_441 VDD VSS sg13g2_decap_8
XFILLER_26_98 VDD VSS sg13g2_decap_8
XFILLER_14_669 VDD VSS sg13g2_decap_8
XFILLER_41_455 VDD VSS sg13g2_decap_8
XFILLER_13_168 VDD VSS sg13g2_decap_8
XFILLER_42_42 VDD VSS sg13g2_decap_8
XFILLER_5_301 VDD VSS sg13g2_decap_8
XFILLER_5_378 VDD VSS sg13g2_decap_8
XFILLER_3_14 VDD VSS sg13g2_decap_8
XFILLER_95_105 VDD VSS sg13g2_decap_8
XFILLER_68_308 VDD VSS sg13g2_decap_8
XFILLER_1_595 VDD VSS sg13g2_decap_8
XFILLER_49_522 VDD VSS sg13g2_decap_8
XFILLER_37_728 VDD VSS sg13g2_decap_8
XFILLER_49_599 VDD VSS sg13g2_decap_8
XFILLER_76_385 VDD VSS sg13g2_decap_8
XFILLER_64_525 VDD VSS sg13g2_decap_8
XFILLER_36_238 VDD VSS sg13g2_decap_8
XFILLER_91_322 VDD VSS sg13g2_decap_8
XFILLER_17_441 VDD VSS sg13g2_decap_8
XFILLER_91_399 VDD VSS sg13g2_decap_8
XFILLER_60_742 VDD VSS sg13g2_decap_8
XFILLER_32_455 VDD VSS sg13g2_decap_8
XFILLER_9_651 VDD VSS sg13g2_decap_8
XFILLER_8_161 VDD VSS sg13g2_decap_8
XFILLER_86_105 VDD VSS sg13g2_decap_8
XFILLER_59_308 VDD VSS sg13g2_decap_8
XFILLER_28_728 VDD VSS sg13g2_decap_8
XFILLER_95_672 VDD VSS sg13g2_decap_8
XFILLER_67_385 VDD VSS sg13g2_decap_8
XFILLER_55_525 VDD VSS sg13g2_decap_8
XFILLER_27_238 VDD VSS sg13g2_decap_8
XFILLER_94_182 VDD VSS sg13g2_decap_8
XFILLER_82_322 VDD VSS sg13g2_decap_8
XFILLER_82_399 VDD VSS sg13g2_decap_8
XFILLER_70_539 VDD VSS sg13g2_decap_8
XFILLER_23_455 VDD VSS sg13g2_decap_8
XFILLER_51_742 VDD VSS sg13g2_decap_8
XFILLER_10_105 VDD VSS sg13g2_decap_8
XFILLER_50_252 VDD VSS sg13g2_decap_8
XFILLER_12_56 VDD VSS sg13g2_decap_8
XFILLER_2_315 VDD VSS sg13g2_decap_8
XFILLER_88_49 VDD VSS sg13g2_decap_8
XFILLER_77_105 VDD VSS sg13g2_decap_8
XFILLER_93_609 VDD VSS sg13g2_decap_8
XFILLER_19_728 VDD VSS sg13g2_decap_8
XFILLER_37_42 VDD VSS sg13g2_decap_8
XFILLER_46_525 VDD VSS sg13g2_decap_8
XFILLER_86_672 VDD VSS sg13g2_decap_8
XFILLER_92_119 VDD VSS sg13g2_decap_8
XFILLER_58_385 VDD VSS sg13g2_decap_8
XFILLER_18_238 VDD VSS sg13g2_decap_8
XFILLER_85_182 VDD VSS sg13g2_decap_8
XFILLER_73_322 VDD VSS sg13g2_decap_8
XFILLER_73_399 VDD VSS sg13g2_decap_8
XFILLER_61_539 VDD VSS sg13g2_decap_8
XFILLER_42_742 VDD VSS sg13g2_decap_8
XFILLER_53_63 VDD VSS sg13g2_decap_8
XFILLER_14_466 VDD VSS sg13g2_decap_8
XFILLER_41_252 VDD VSS sg13g2_decap_8
XFILLER_10_672 VDD VSS sg13g2_decap_8
XFILLER_6_665 VDD VSS sg13g2_decap_8
XFILLER_45_7 VDD VSS sg13g2_decap_8
XFILLER_5_175 VDD VSS sg13g2_decap_8
XFILLER_68_105 VDD VSS sg13g2_decap_8
XFILLER_1_392 VDD VSS sg13g2_decap_8
XFILLER_96_469 VDD VSS sg13g2_decap_8